
Note: Compatibility modes selected: hs a


Circuit: SRAM 6T Cell Testbench - SKY130A

option SCALE: Scale is set to 0.01 for instance and model parameters
option SCALE: Scale is set to 1e-06 for instance and model parameters
option SCALE: Scale is set to 1e-06 for instance and model parameters
option SCALE: Scale is set to 1e-06 for instance and model parameters
option SCALE: Scale is set to 1e-06 for instance and model parameters
Doing analysis at TEMP = 27.000000 and TNOM = 27.000000

Using KLU as Direct Linear Solver

No. of Data Rows : 3028

  Measurements for Transient Analysis

t_access            =  3.601934e-10 targ=  2.410193e-09 trig=  2.050000e-09

                        SRAM 6T Cell Testbench - SKY130A
                        Transient Analysis  Wed Jul  8 17:35:19  2026
--------------------------------------------------------------------------------
Index   time            v(wl)           v(bl)           v(blb)          
--------------------------------------------------------------------------------
0	0.000000e+00	0.000000e+00	1.800000e+00	1.800000e+00	
1	1.000000e-13	0.000000e+00	1.800000e+00	1.800000e+00	
2	2.000000e-13	0.000000e+00	1.800000e+00	1.800000e+00	
3	4.000000e-13	0.000000e+00	1.800000e+00	1.800000e+00	
4	8.000000e-13	0.000000e+00	1.800000e+00	1.800000e+00	
5	1.600000e-12	0.000000e+00	1.800000e+00	1.800000e+00	
6	3.200000e-12	0.000000e+00	1.800000e+00	1.800000e+00	
7	6.400000e-12	0.000000e+00	1.800000e+00	1.800000e+00	
8	1.280000e-11	0.000000e+00	1.800000e+00	1.800000e+00	
9	2.280000e-11	0.000000e+00	1.800000e+00	1.800000e+00	
10	3.280000e-11	0.000000e+00	1.800000e+00	1.800000e+00	
11	4.280000e-11	0.000000e+00	1.800000e+00	1.800000e+00	
12	5.280000e-11	0.000000e+00	1.800000e+00	1.800000e+00	
13	6.280000e-11	0.000000e+00	1.800000e+00	1.800000e+00	
14	7.280000e-11	0.000000e+00	1.800000e+00	1.800000e+00	
15	8.280000e-11	0.000000e+00	1.800000e+00	1.800000e+00	
16	9.280000e-11	0.000000e+00	1.800000e+00	1.800000e+00	
17	1.028000e-10	0.000000e+00	1.800000e+00	1.800000e+00	
18	1.128000e-10	0.000000e+00	1.800000e+00	1.800000e+00	
19	1.228000e-10	0.000000e+00	1.800000e+00	1.800000e+00	
20	1.328000e-10	0.000000e+00	1.800000e+00	1.800000e+00	
21	1.428000e-10	0.000000e+00	1.800000e+00	1.800000e+00	
22	1.528000e-10	0.000000e+00	1.800000e+00	1.800000e+00	
23	1.628000e-10	0.000000e+00	1.800000e+00	1.800000e+00	
24	1.728000e-10	0.000000e+00	1.800000e+00	1.800000e+00	
25	1.828000e-10	0.000000e+00	1.800000e+00	1.800000e+00	
26	1.928000e-10	0.000000e+00	1.800000e+00	1.800000e+00	
27	2.028000e-10	0.000000e+00	1.800000e+00	1.800000e+00	
28	2.128000e-10	0.000000e+00	1.800000e+00	1.800000e+00	
29	2.228000e-10	0.000000e+00	1.800000e+00	1.800000e+00	
30	2.328000e-10	0.000000e+00	1.800000e+00	1.800000e+00	
31	2.428000e-10	0.000000e+00	1.800000e+00	1.800000e+00	
32	2.528000e-10	0.000000e+00	1.800000e+00	1.800000e+00	
33	2.628000e-10	0.000000e+00	1.800000e+00	1.800000e+00	
34	2.728000e-10	0.000000e+00	1.800000e+00	1.800000e+00	
35	2.828000e-10	0.000000e+00	1.800000e+00	1.800000e+00	
36	2.928000e-10	0.000000e+00	1.800000e+00	1.800000e+00	
37	3.028000e-10	0.000000e+00	1.800000e+00	1.800000e+00	
38	3.128000e-10	0.000000e+00	1.800000e+00	1.800000e+00	
39	3.228000e-10	0.000000e+00	1.800000e+00	1.800000e+00	
40	3.328000e-10	0.000000e+00	1.800000e+00	1.800000e+00	
41	3.428000e-10	0.000000e+00	1.800000e+00	1.800000e+00	
42	3.528000e-10	0.000000e+00	1.800000e+00	1.800000e+00	
43	3.628000e-10	0.000000e+00	1.800000e+00	1.800000e+00	
44	3.728000e-10	0.000000e+00	1.800000e+00	1.800000e+00	
45	3.828000e-10	0.000000e+00	1.800000e+00	1.800000e+00	
46	3.928000e-10	0.000000e+00	1.800000e+00	1.800000e+00	
47	4.028000e-10	0.000000e+00	1.800000e+00	1.800000e+00	
48	4.128000e-10	0.000000e+00	1.800000e+00	1.800000e+00	
49	4.228000e-10	0.000000e+00	1.800000e+00	1.800000e+00	
50	4.328000e-10	0.000000e+00	1.800000e+00	1.800000e+00	
51	4.428000e-10	0.000000e+00	1.800000e+00	1.800000e+00	
52	4.528000e-10	0.000000e+00	1.800000e+00	1.800000e+00	
53	4.628000e-10	0.000000e+00	1.800000e+00	1.800000e+00	
54	4.728000e-10	0.000000e+00	1.800000e+00	1.800000e+00	

Index   time            v(wl)           v(bl)           v(blb)          
--------------------------------------------------------------------------------
55	4.828000e-10	0.000000e+00	1.800000e+00	1.800000e+00	
56	4.928000e-10	0.000000e+00	1.800000e+00	1.800000e+00	
57	5.028000e-10	0.000000e+00	1.800000e+00	1.800000e+00	
58	5.128000e-10	0.000000e+00	1.800000e+00	1.800000e+00	
59	5.228000e-10	0.000000e+00	1.800000e+00	1.800000e+00	
60	5.328000e-10	0.000000e+00	1.800000e+00	1.800000e+00	
61	5.428000e-10	0.000000e+00	1.800000e+00	1.800000e+00	
62	5.528000e-10	0.000000e+00	1.800000e+00	1.800000e+00	
63	5.628000e-10	0.000000e+00	1.800000e+00	1.800000e+00	
64	5.728000e-10	0.000000e+00	1.800000e+00	1.800000e+00	
65	5.828000e-10	0.000000e+00	1.800000e+00	1.800000e+00	
66	5.928000e-10	0.000000e+00	1.800000e+00	1.800000e+00	
67	6.028000e-10	0.000000e+00	1.800000e+00	1.800000e+00	
68	6.128000e-10	0.000000e+00	1.800000e+00	1.800000e+00	
69	6.228000e-10	0.000000e+00	1.800000e+00	1.800000e+00	
70	6.328000e-10	0.000000e+00	1.800000e+00	1.800000e+00	
71	6.428000e-10	0.000000e+00	1.800000e+00	1.800000e+00	
72	6.528000e-10	0.000000e+00	1.800000e+00	1.800000e+00	
73	6.628000e-10	0.000000e+00	1.800000e+00	1.800000e+00	
74	6.728000e-10	0.000000e+00	1.800000e+00	1.800000e+00	
75	6.828000e-10	0.000000e+00	1.800000e+00	1.800000e+00	
76	6.928000e-10	0.000000e+00	1.800000e+00	1.800000e+00	
77	7.028000e-10	0.000000e+00	1.800000e+00	1.800000e+00	
78	7.128000e-10	0.000000e+00	1.800000e+00	1.800000e+00	
79	7.228000e-10	0.000000e+00	1.800000e+00	1.800000e+00	
80	7.328000e-10	0.000000e+00	1.800000e+00	1.800000e+00	
81	7.428000e-10	0.000000e+00	1.800000e+00	1.800000e+00	
82	7.528000e-10	0.000000e+00	1.800000e+00	1.800000e+00	
83	7.628000e-10	0.000000e+00	1.800000e+00	1.800000e+00	
84	7.728000e-10	0.000000e+00	1.800000e+00	1.800000e+00	
85	7.828000e-10	0.000000e+00	1.800000e+00	1.800000e+00	
86	7.928000e-10	0.000000e+00	1.800000e+00	1.800000e+00	
87	8.028000e-10	0.000000e+00	1.800000e+00	1.800000e+00	
88	8.128000e-10	0.000000e+00	1.800000e+00	1.800000e+00	
89	8.228000e-10	0.000000e+00	1.800000e+00	1.800000e+00	
90	8.328000e-10	0.000000e+00	1.800000e+00	1.800000e+00	
91	8.428000e-10	0.000000e+00	1.800000e+00	1.800000e+00	
92	8.528000e-10	0.000000e+00	1.800000e+00	1.800000e+00	
93	8.628000e-10	0.000000e+00	1.800000e+00	1.800000e+00	
94	8.728000e-10	0.000000e+00	1.800000e+00	1.800000e+00	
95	8.828000e-10	0.000000e+00	1.800000e+00	1.800000e+00	
96	8.928000e-10	0.000000e+00	1.800000e+00	1.800000e+00	
97	9.028000e-10	0.000000e+00	1.800000e+00	1.800000e+00	
98	9.128000e-10	0.000000e+00	1.800000e+00	1.800000e+00	
99	9.228000e-10	0.000000e+00	1.800000e+00	1.800000e+00	
100	9.328000e-10	0.000000e+00	1.800000e+00	1.800000e+00	
101	9.428000e-10	0.000000e+00	1.800000e+00	1.800000e+00	
102	9.528000e-10	0.000000e+00	1.800000e+00	1.800000e+00	
103	9.628000e-10	0.000000e+00	1.800000e+00	1.800000e+00	
104	9.728000e-10	0.000000e+00	1.800000e+00	1.800000e+00	
105	9.828000e-10	0.000000e+00	1.800000e+00	1.800000e+00	
106	9.928000e-10	0.000000e+00	1.800000e+00	1.800000e+00	
107	1.002800e-09	0.000000e+00	1.800000e+00	1.800000e+00	
108	1.012800e-09	0.000000e+00	1.800000e+00	1.800000e+00	
109	1.022800e-09	0.000000e+00	1.800000e+00	1.800000e+00	
110	1.032800e-09	0.000000e+00	1.800000e+00	1.800000e+00	
111	1.042800e-09	0.000000e+00	1.800000e+00	1.800000e+00	
112	1.052800e-09	0.000000e+00	1.800000e+00	1.800000e+00	

Index   time            v(wl)           v(bl)           v(blb)          
--------------------------------------------------------------------------------
113	1.062800e-09	0.000000e+00	1.800000e+00	1.800000e+00	
114	1.072800e-09	0.000000e+00	1.800000e+00	1.800000e+00	
115	1.082800e-09	0.000000e+00	1.800000e+00	1.800000e+00	
116	1.092800e-09	0.000000e+00	1.800000e+00	1.800000e+00	
117	1.102800e-09	0.000000e+00	1.800000e+00	1.800000e+00	
118	1.112800e-09	0.000000e+00	1.800000e+00	1.800000e+00	
119	1.122800e-09	0.000000e+00	1.800000e+00	1.800000e+00	
120	1.132800e-09	0.000000e+00	1.800000e+00	1.800000e+00	
121	1.142800e-09	0.000000e+00	1.800000e+00	1.800000e+00	
122	1.152800e-09	0.000000e+00	1.800000e+00	1.800000e+00	
123	1.162800e-09	0.000000e+00	1.800000e+00	1.800000e+00	
124	1.172800e-09	0.000000e+00	1.800000e+00	1.800000e+00	
125	1.182800e-09	0.000000e+00	1.800000e+00	1.800000e+00	
126	1.192800e-09	0.000000e+00	1.800000e+00	1.800000e+00	
127	1.202800e-09	0.000000e+00	1.800000e+00	1.800000e+00	
128	1.212800e-09	0.000000e+00	1.800000e+00	1.800000e+00	
129	1.222800e-09	0.000000e+00	1.800000e+00	1.800000e+00	
130	1.232800e-09	0.000000e+00	1.800000e+00	1.800000e+00	
131	1.242800e-09	0.000000e+00	1.800000e+00	1.800000e+00	
132	1.252800e-09	0.000000e+00	1.800000e+00	1.800000e+00	
133	1.262800e-09	0.000000e+00	1.800000e+00	1.800000e+00	
134	1.272800e-09	0.000000e+00	1.800000e+00	1.800000e+00	
135	1.282800e-09	0.000000e+00	1.800000e+00	1.800000e+00	
136	1.292800e-09	0.000000e+00	1.800000e+00	1.800000e+00	
137	1.302800e-09	0.000000e+00	1.800000e+00	1.800000e+00	
138	1.312800e-09	0.000000e+00	1.800000e+00	1.800000e+00	
139	1.322800e-09	0.000000e+00	1.800000e+00	1.800000e+00	
140	1.332800e-09	0.000000e+00	1.800000e+00	1.800000e+00	
141	1.342800e-09	0.000000e+00	1.800000e+00	1.800000e+00	
142	1.352800e-09	0.000000e+00	1.800000e+00	1.800000e+00	
143	1.362800e-09	0.000000e+00	1.800000e+00	1.800000e+00	
144	1.372800e-09	0.000000e+00	1.800000e+00	1.800000e+00	
145	1.382800e-09	0.000000e+00	1.800000e+00	1.800000e+00	
146	1.392800e-09	0.000000e+00	1.800000e+00	1.800000e+00	
147	1.402800e-09	0.000000e+00	1.800000e+00	1.800000e+00	
148	1.412800e-09	0.000000e+00	1.800000e+00	1.800000e+00	
149	1.422800e-09	0.000000e+00	1.800000e+00	1.800000e+00	
150	1.432800e-09	0.000000e+00	1.800000e+00	1.800000e+00	
151	1.442800e-09	0.000000e+00	1.800000e+00	1.800000e+00	
152	1.452800e-09	0.000000e+00	1.800000e+00	1.800000e+00	
153	1.462800e-09	0.000000e+00	1.800000e+00	1.800000e+00	
154	1.472800e-09	0.000000e+00	1.800000e+00	1.800000e+00	
155	1.482800e-09	0.000000e+00	1.800000e+00	1.800000e+00	
156	1.492800e-09	0.000000e+00	1.800000e+00	1.800000e+00	
157	1.502800e-09	0.000000e+00	1.800000e+00	1.800000e+00	
158	1.512800e-09	0.000000e+00	1.800000e+00	1.800000e+00	
159	1.522800e-09	0.000000e+00	1.800000e+00	1.800000e+00	
160	1.532800e-09	0.000000e+00	1.800000e+00	1.800000e+00	
161	1.542800e-09	0.000000e+00	1.800000e+00	1.800000e+00	
162	1.552800e-09	0.000000e+00	1.800000e+00	1.800000e+00	
163	1.562800e-09	0.000000e+00	1.800000e+00	1.800000e+00	
164	1.572800e-09	0.000000e+00	1.800000e+00	1.800000e+00	
165	1.582800e-09	0.000000e+00	1.800000e+00	1.800000e+00	
166	1.592800e-09	0.000000e+00	1.800000e+00	1.800000e+00	
167	1.602800e-09	0.000000e+00	1.800000e+00	1.800000e+00	
168	1.612800e-09	0.000000e+00	1.800000e+00	1.800000e+00	
169	1.622800e-09	0.000000e+00	1.800000e+00	1.800000e+00	
170	1.632800e-09	0.000000e+00	1.800000e+00	1.800000e+00	

Index   time            v(wl)           v(bl)           v(blb)          
--------------------------------------------------------------------------------
171	1.642800e-09	0.000000e+00	1.800000e+00	1.800000e+00	
172	1.652800e-09	0.000000e+00	1.800000e+00	1.800000e+00	
173	1.662800e-09	0.000000e+00	1.800000e+00	1.800000e+00	
174	1.672800e-09	0.000000e+00	1.800000e+00	1.800000e+00	
175	1.682800e-09	0.000000e+00	1.800000e+00	1.800000e+00	
176	1.692800e-09	0.000000e+00	1.800000e+00	1.800000e+00	
177	1.702800e-09	0.000000e+00	1.800000e+00	1.800000e+00	
178	1.712800e-09	0.000000e+00	1.800000e+00	1.800000e+00	
179	1.722800e-09	0.000000e+00	1.800000e+00	1.800000e+00	
180	1.732800e-09	0.000000e+00	1.800000e+00	1.800000e+00	
181	1.742800e-09	0.000000e+00	1.800000e+00	1.800000e+00	
182	1.752800e-09	0.000000e+00	1.800000e+00	1.800000e+00	
183	1.762800e-09	0.000000e+00	1.800000e+00	1.800000e+00	
184	1.772800e-09	0.000000e+00	1.800000e+00	1.800000e+00	
185	1.782800e-09	0.000000e+00	1.800000e+00	1.800000e+00	
186	1.792800e-09	0.000000e+00	1.800000e+00	1.800000e+00	
187	1.802800e-09	0.000000e+00	1.800000e+00	1.800000e+00	
188	1.812800e-09	0.000000e+00	1.800000e+00	1.800000e+00	
189	1.822800e-09	0.000000e+00	1.800000e+00	1.800000e+00	
190	1.832800e-09	0.000000e+00	1.800000e+00	1.800000e+00	
191	1.842800e-09	0.000000e+00	1.800000e+00	1.800000e+00	
192	1.852800e-09	0.000000e+00	1.800000e+00	1.800000e+00	
193	1.862800e-09	0.000000e+00	1.800000e+00	1.800000e+00	
194	1.872800e-09	0.000000e+00	1.800000e+00	1.800000e+00	
195	1.882800e-09	0.000000e+00	1.800000e+00	1.800000e+00	
196	1.892800e-09	0.000000e+00	1.800000e+00	1.800000e+00	
197	1.902800e-09	0.000000e+00	1.800000e+00	1.800000e+00	
198	1.912800e-09	0.000000e+00	1.800000e+00	1.800000e+00	
199	1.922800e-09	0.000000e+00	1.800000e+00	1.800000e+00	
200	1.932800e-09	0.000000e+00	1.800000e+00	1.800000e+00	
201	1.942800e-09	0.000000e+00	1.800000e+00	1.800000e+00	
202	1.952800e-09	0.000000e+00	1.800000e+00	1.800000e+00	
203	1.962800e-09	0.000000e+00	1.800000e+00	1.800000e+00	
204	1.972800e-09	0.000000e+00	1.800000e+00	1.800000e+00	
205	1.982800e-09	0.000000e+00	1.800000e+00	1.800000e+00	
206	1.992800e-09	0.000000e+00	1.800000e+00	1.800000e+00	
207	2.000000e-09	0.000000e+00	1.800000e+00	1.800000e+00	
208	2.001000e-09	1.800000e-02	1.801786e+00	1.811234e+00	
209	2.003000e-09	5.400000e-02	1.805358e+00	1.841950e+00	
210	2.007000e-09	1.260000e-01	1.811997e+00	1.936151e+00	
211	2.015000e-09	2.700000e-01	1.823467e+00	2.290803e+00	
212	2.025000e-09	4.500000e-01	1.835014e+00	3.125052e+00	
213	2.035000e-09	6.300000e-01	1.844120e+00	4.316252e+00	
214	2.045000e-09	8.100000e-01	1.851400e+00	5.667491e+00	
215	2.055000e-09	9.900000e-01	1.857297e+00	7.004838e+00	
216	2.065000e-09	1.170000e+00	1.862163e+00	8.230979e+00	
217	2.075000e-09	1.350000e+00	1.866256e+00	9.309926e+00	
218	2.085000e-09	1.530000e+00	1.869911e+00	1.023695e+01	
219	2.095000e-09	1.710000e+00	1.873972e+00	1.101983e+01	
220	2.100000e-09	1.800000e+00	1.876950e+00	1.136051e+01	
221	2.101000e-09	1.800000e+00	1.875416e+00	1.137813e+01	
222	2.103000e-09	1.800000e+00	1.872257e+00	1.134059e+01	
223	2.107000e-09	1.800000e+00	1.866222e+00	1.097583e+01	
224	2.115000e-09	1.800000e+00	1.856142e+00	9.842983e+00	
225	2.125000e-09	1.800000e+00	1.846441e+00	8.412303e+00	
226	2.135000e-09	1.800000e+00	1.838747e+00	7.235972e+00	
227	2.145000e-09	1.800000e+00	1.832481e+00	6.283473e+00	
228	2.155000e-09	1.800000e+00	1.827297e+00	5.504961e+00	

Index   time            v(wl)           v(bl)           v(blb)          
--------------------------------------------------------------------------------
229	2.165000e-09	1.800000e+00	1.822981e+00	4.863902e+00	
230	2.175000e-09	1.800000e+00	1.819381e+00	4.333664e+00	
231	2.185000e-09	1.800000e+00	1.816363e+00	3.893417e+00	
232	2.195000e-09	1.800000e+00	1.813843e+00	3.527159e+00	
233	2.205000e-09	1.800000e+00	1.811722e+00	3.221831e+00	
234	2.215000e-09	1.800000e+00	1.809950e+00	2.967097e+00	
235	2.225000e-09	1.800000e+00	1.808450e+00	2.754306e+00	
236	2.235000e-09	1.800000e+00	1.807196e+00	2.576520e+00	
237	2.245000e-09	1.800000e+00	1.806130e+00	2.427864e+00	
238	2.255000e-09	1.800000e+00	1.805236e+00	2.303554e+00	
239	2.265000e-09	1.800000e+00	1.804472e+00	2.199517e+00	
240	2.275000e-09	1.800000e+00	1.803830e+00	2.112448e+00	
241	2.285000e-09	1.800000e+00	1.803278e+00	2.039508e+00	
242	2.295000e-09	1.800000e+00	1.802815e+00	1.978398e+00	
243	2.305000e-09	1.800000e+00	1.802413e+00	1.927138e+00	
244	2.315000e-09	1.800000e+00	1.802067e+00	1.884132e+00	
245	2.325000e-09	1.800000e+00	1.801723e+00	1.847999e+00	
246	2.335000e-09	1.800000e+00	1.801439e+00	1.817634e+00	
247	2.345000e-09	1.800000e+00	1.801200e+00	1.792075e+00	
248	2.355000e-09	1.800000e+00	1.801004e+00	1.770560e+00	
249	2.365000e-09	1.800000e+00	1.800837e+00	1.752416e+00	
250	2.375000e-09	1.800000e+00	1.800701e+00	1.737118e+00	
251	2.385000e-09	1.800000e+00	1.800584e+00	1.724194e+00	
252	2.395000e-09	1.800000e+00	1.800490e+00	1.713283e+00	
253	2.405000e-09	1.800000e+00	1.800407e+00	1.704051e+00	
254	2.415000e-09	1.800000e+00	1.800342e+00	1.696250e+00	
255	2.425000e-09	1.800000e+00	1.800284e+00	1.689641e+00	
256	2.435000e-09	1.800000e+00	1.800239e+00	1.684052e+00	
257	2.445000e-09	1.800000e+00	1.800198e+00	1.679312e+00	
258	2.455000e-09	1.800000e+00	1.800168e+00	1.675303e+00	
259	2.465000e-09	1.800000e+00	1.800138e+00	1.671899e+00	
260	2.475000e-09	1.800000e+00	1.800117e+00	1.669020e+00	
261	2.485000e-09	1.800000e+00	1.800096e+00	1.666575e+00	
262	2.495000e-09	1.800000e+00	1.800082e+00	1.664507e+00	
263	2.505000e-09	1.800000e+00	1.800067e+00	1.662750e+00	
264	2.515000e-09	1.800000e+00	1.800058e+00	1.661265e+00	
265	2.525000e-09	1.800000e+00	1.800047e+00	1.660003e+00	
266	2.535000e-09	1.800000e+00	1.800040e+00	1.658939e+00	
267	2.545000e-09	1.800000e+00	1.800032e+00	1.658033e+00	
268	2.555000e-09	1.800000e+00	1.800028e+00	1.657271e+00	
269	2.565000e-09	1.800000e+00	1.800022e+00	1.656623e+00	
270	2.575000e-09	1.800000e+00	1.800020e+00	1.656079e+00	
271	2.585000e-09	1.800000e+00	1.800015e+00	1.655616e+00	
272	2.595000e-09	1.800000e+00	1.800014e+00	1.655230e+00	
273	2.605000e-09	1.800000e+00	1.800010e+00	1.654901e+00	
274	2.615000e-09	1.800000e+00	1.800010e+00	1.654628e+00	
275	2.625000e-09	1.800000e+00	1.800007e+00	1.654396e+00	
276	2.635000e-09	1.800000e+00	1.800007e+00	1.654206e+00	
277	2.645000e-09	1.800000e+00	1.800005e+00	1.654044e+00	
278	2.655000e-09	1.800000e+00	1.800005e+00	1.653912e+00	
279	2.665000e-09	1.800000e+00	1.800003e+00	1.653801e+00	
280	2.675000e-09	1.800000e+00	1.800004e+00	1.653712e+00	
281	2.685000e-09	1.800000e+00	1.800002e+00	1.653638e+00	
282	2.695000e-09	1.800000e+00	1.800003e+00	1.653580e+00	
283	2.705000e-09	1.800000e+00	1.800001e+00	1.653532e+00	
284	2.715000e-09	1.800000e+00	1.800002e+00	1.653497e+00	
285	2.725000e-09	1.800000e+00	1.800000e+00	1.653468e+00	
286	2.735000e-09	1.800000e+00	1.800001e+00	1.653449e+00	

Index   time            v(wl)           v(bl)           v(blb)          
--------------------------------------------------------------------------------
287	2.745000e-09	1.800000e+00	1.800000e+00	1.653434e+00	
288	2.755000e-09	1.800000e+00	1.800001e+00	1.653427e+00	
289	2.765000e-09	1.800000e+00	1.800000e+00	1.653422e+00	
290	2.775000e-09	1.800000e+00	1.800001e+00	1.653423e+00	
291	2.785000e-09	1.800000e+00	1.800000e+00	1.653425e+00	
292	2.795000e-09	1.800000e+00	1.800001e+00	1.653433e+00	
293	2.805000e-09	1.800000e+00	1.800000e+00	1.653440e+00	
294	2.815000e-09	1.800000e+00	1.800000e+00	1.653452e+00	
295	2.825000e-09	1.800000e+00	1.799999e+00	1.653464e+00	
296	2.835000e-09	1.800000e+00	1.800000e+00	1.653479e+00	
297	2.845000e-09	1.800000e+00	1.799999e+00	1.653493e+00	
298	2.855000e-09	1.800000e+00	1.800000e+00	1.653510e+00	
299	2.865000e-09	1.800000e+00	1.799999e+00	1.653527e+00	
300	2.875000e-09	1.800000e+00	1.800000e+00	1.653546e+00	
301	2.885000e-09	1.800000e+00	1.799999e+00	1.653564e+00	
302	2.895000e-09	1.800000e+00	1.800000e+00	1.653584e+00	
303	2.905000e-09	1.800000e+00	1.799999e+00	1.653603e+00	
304	2.915000e-09	1.800000e+00	1.800000e+00	1.653623e+00	
305	2.925000e-09	1.800000e+00	1.799999e+00	1.653643e+00	
306	2.935000e-09	1.800000e+00	1.800000e+00	1.653665e+00	
307	2.945000e-09	1.800000e+00	1.799999e+00	1.653685e+00	
308	2.955000e-09	1.800000e+00	1.800000e+00	1.653707e+00	
309	2.965000e-09	1.800000e+00	1.799999e+00	1.653728e+00	
310	2.975000e-09	1.800000e+00	1.800000e+00	1.653750e+00	
311	2.985000e-09	1.800000e+00	1.799999e+00	1.653772e+00	
312	2.995000e-09	1.800000e+00	1.800000e+00	1.653794e+00	
313	3.005000e-09	1.800000e+00	1.799999e+00	1.653815e+00	
314	3.015000e-09	1.800000e+00	1.800000e+00	1.653838e+00	
315	3.025000e-09	1.800000e+00	1.799999e+00	1.653860e+00	
316	3.035000e-09	1.800000e+00	1.800000e+00	1.653882e+00	
317	3.045000e-09	1.800000e+00	1.799999e+00	1.653904e+00	
318	3.055000e-09	1.800000e+00	1.800000e+00	1.653927e+00	
319	3.065000e-09	1.800000e+00	1.799999e+00	1.653949e+00	
320	3.075000e-09	1.800000e+00	1.800000e+00	1.653971e+00	
321	3.085000e-09	1.800000e+00	1.799999e+00	1.653993e+00	
322	3.095000e-09	1.800000e+00	1.800000e+00	1.654016e+00	
323	3.105000e-09	1.800000e+00	1.799999e+00	1.654038e+00	
324	3.115000e-09	1.800000e+00	1.800000e+00	1.654061e+00	
325	3.125000e-09	1.800000e+00	1.799999e+00	1.654083e+00	
326	3.135000e-09	1.800000e+00	1.800000e+00	1.654106e+00	
327	3.145000e-09	1.800000e+00	1.799999e+00	1.654128e+00	
328	3.155000e-09	1.800000e+00	1.800000e+00	1.654151e+00	
329	3.165000e-09	1.800000e+00	1.799999e+00	1.654173e+00	
330	3.175000e-09	1.800000e+00	1.800000e+00	1.654195e+00	
331	3.185000e-09	1.800000e+00	1.799999e+00	1.654218e+00	
332	3.195000e-09	1.800000e+00	1.800000e+00	1.654240e+00	
333	3.205000e-09	1.800000e+00	1.799999e+00	1.654263e+00	
334	3.215000e-09	1.800000e+00	1.800000e+00	1.654285e+00	
335	3.225000e-09	1.800000e+00	1.799999e+00	1.654307e+00	
336	3.235000e-09	1.800000e+00	1.800000e+00	1.654330e+00	
337	3.245000e-09	1.800000e+00	1.800000e+00	1.654352e+00	
338	3.255000e-09	1.800000e+00	1.800000e+00	1.654375e+00	
339	3.265000e-09	1.800000e+00	1.800000e+00	1.654397e+00	
340	3.275000e-09	1.800000e+00	1.800000e+00	1.654420e+00	
341	3.285000e-09	1.800000e+00	1.800000e+00	1.654442e+00	
342	3.295000e-09	1.800000e+00	1.800000e+00	1.654465e+00	
343	3.305000e-09	1.800000e+00	1.800000e+00	1.654487e+00	
344	3.315000e-09	1.800000e+00	1.800000e+00	1.654509e+00	

Index   time            v(wl)           v(bl)           v(blb)          
--------------------------------------------------------------------------------
345	3.325000e-09	1.800000e+00	1.800000e+00	1.654532e+00	
346	3.335000e-09	1.800000e+00	1.800000e+00	1.654554e+00	
347	3.345000e-09	1.800000e+00	1.800000e+00	1.654576e+00	
348	3.355000e-09	1.800000e+00	1.800000e+00	1.654599e+00	
349	3.365000e-09	1.800000e+00	1.800000e+00	1.654621e+00	
350	3.375000e-09	1.800000e+00	1.800000e+00	1.654644e+00	
351	3.385000e-09	1.800000e+00	1.800000e+00	1.654666e+00	
352	3.395000e-09	1.800000e+00	1.800000e+00	1.654689e+00	
353	3.405000e-09	1.800000e+00	1.800000e+00	1.654711e+00	
354	3.415000e-09	1.800000e+00	1.800000e+00	1.654733e+00	
355	3.425000e-09	1.800000e+00	1.800000e+00	1.654756e+00	
356	3.435000e-09	1.800000e+00	1.800000e+00	1.654778e+00	
357	3.445000e-09	1.800000e+00	1.800000e+00	1.654800e+00	
358	3.455000e-09	1.800000e+00	1.800000e+00	1.654823e+00	
359	3.465000e-09	1.800000e+00	1.800000e+00	1.654845e+00	
360	3.475000e-09	1.800000e+00	1.800000e+00	1.654867e+00	
361	3.485000e-09	1.800000e+00	1.800000e+00	1.654890e+00	
362	3.495000e-09	1.800000e+00	1.800000e+00	1.654912e+00	
363	3.505000e-09	1.800000e+00	1.800000e+00	1.654934e+00	
364	3.515000e-09	1.800000e+00	1.800000e+00	1.654957e+00	
365	3.525000e-09	1.800000e+00	1.800000e+00	1.654979e+00	
366	3.535000e-09	1.800000e+00	1.800000e+00	1.655001e+00	
367	3.545000e-09	1.800000e+00	1.800000e+00	1.655023e+00	
368	3.555000e-09	1.800000e+00	1.800000e+00	1.655046e+00	
369	3.565000e-09	1.800000e+00	1.800000e+00	1.655068e+00	
370	3.575000e-09	1.800000e+00	1.800000e+00	1.655090e+00	
371	3.585000e-09	1.800000e+00	1.800000e+00	1.655113e+00	
372	3.595000e-09	1.800000e+00	1.800000e+00	1.655135e+00	
373	3.605000e-09	1.800000e+00	1.800000e+00	1.655157e+00	
374	3.615000e-09	1.800000e+00	1.800000e+00	1.655180e+00	
375	3.625000e-09	1.800000e+00	1.800000e+00	1.655202e+00	
376	3.635000e-09	1.800000e+00	1.800000e+00	1.655224e+00	
377	3.645000e-09	1.800000e+00	1.800000e+00	1.655246e+00	
378	3.655000e-09	1.800000e+00	1.800000e+00	1.655269e+00	
379	3.665000e-09	1.800000e+00	1.800000e+00	1.655291e+00	
380	3.675000e-09	1.800000e+00	1.800000e+00	1.655313e+00	
381	3.685000e-09	1.800000e+00	1.800000e+00	1.655335e+00	
382	3.695000e-09	1.800000e+00	1.800000e+00	1.655358e+00	
383	3.705000e-09	1.800000e+00	1.800000e+00	1.655380e+00	
384	3.715000e-09	1.800000e+00	1.800000e+00	1.655402e+00	
385	3.725000e-09	1.800000e+00	1.800000e+00	1.655424e+00	
386	3.735000e-09	1.800000e+00	1.800000e+00	1.655446e+00	
387	3.745000e-09	1.800000e+00	1.800000e+00	1.655469e+00	
388	3.755000e-09	1.800000e+00	1.800000e+00	1.655491e+00	
389	3.765000e-09	1.800000e+00	1.800000e+00	1.655513e+00	
390	3.775000e-09	1.800000e+00	1.800000e+00	1.655535e+00	
391	3.785000e-09	1.800000e+00	1.800000e+00	1.655557e+00	
392	3.795000e-09	1.800000e+00	1.800000e+00	1.655580e+00	
393	3.805000e-09	1.800000e+00	1.800000e+00	1.655602e+00	
394	3.815000e-09	1.800000e+00	1.800000e+00	1.655624e+00	
395	3.825000e-09	1.800000e+00	1.800000e+00	1.655646e+00	
396	3.835000e-09	1.800000e+00	1.800000e+00	1.655668e+00	
397	3.845000e-09	1.800000e+00	1.800000e+00	1.655690e+00	
398	3.855000e-09	1.800000e+00	1.800000e+00	1.655712e+00	
399	3.865000e-09	1.800000e+00	1.800000e+00	1.655735e+00	
400	3.875000e-09	1.800000e+00	1.800000e+00	1.655757e+00	
401	3.885000e-09	1.800000e+00	1.800000e+00	1.655779e+00	
402	3.895000e-09	1.800000e+00	1.800000e+00	1.655801e+00	

Index   time            v(wl)           v(bl)           v(blb)          
--------------------------------------------------------------------------------
403	3.905000e-09	1.800000e+00	1.800000e+00	1.655823e+00	
404	3.915000e-09	1.800000e+00	1.800000e+00	1.655845e+00	
405	3.925000e-09	1.800000e+00	1.800000e+00	1.655867e+00	
406	3.935000e-09	1.800000e+00	1.800000e+00	1.655890e+00	
407	3.945000e-09	1.800000e+00	1.800000e+00	1.655912e+00	
408	3.955000e-09	1.800000e+00	1.800000e+00	1.655934e+00	
409	3.965000e-09	1.800000e+00	1.800000e+00	1.655956e+00	
410	3.975000e-09	1.800000e+00	1.800000e+00	1.655978e+00	
411	3.985000e-09	1.800000e+00	1.800000e+00	1.656000e+00	
412	3.995000e-09	1.800000e+00	1.800000e+00	1.656022e+00	
413	4.005000e-09	1.800000e+00	1.800000e+00	1.656044e+00	
414	4.015000e-09	1.800000e+00	1.800000e+00	1.656066e+00	
415	4.025000e-09	1.800000e+00	1.800000e+00	1.656088e+00	
416	4.035000e-09	1.800000e+00	1.800000e+00	1.656110e+00	
417	4.045000e-09	1.800000e+00	1.800000e+00	1.656132e+00	
418	4.055000e-09	1.800000e+00	1.800000e+00	1.656154e+00	
419	4.065000e-09	1.800000e+00	1.800000e+00	1.656176e+00	
420	4.075000e-09	1.800000e+00	1.800000e+00	1.656199e+00	
421	4.085000e-09	1.800000e+00	1.800000e+00	1.656221e+00	
422	4.095000e-09	1.800000e+00	1.800000e+00	1.656243e+00	
423	4.105000e-09	1.800000e+00	1.800000e+00	1.656265e+00	
424	4.115000e-09	1.800000e+00	1.800000e+00	1.656287e+00	
425	4.125000e-09	1.800000e+00	1.800000e+00	1.656309e+00	
426	4.135000e-09	1.800000e+00	1.800000e+00	1.656331e+00	
427	4.145000e-09	1.800000e+00	1.800000e+00	1.656353e+00	
428	4.155000e-09	1.800000e+00	1.800000e+00	1.656375e+00	
429	4.165000e-09	1.800000e+00	1.800000e+00	1.656397e+00	
430	4.175000e-09	1.800000e+00	1.800000e+00	1.656419e+00	
431	4.185000e-09	1.800000e+00	1.800000e+00	1.656441e+00	
432	4.195000e-09	1.800000e+00	1.800000e+00	1.656463e+00	
433	4.205000e-09	1.800000e+00	1.800000e+00	1.656485e+00	
434	4.215000e-09	1.800000e+00	1.800000e+00	1.656507e+00	
435	4.225000e-09	1.800000e+00	1.800000e+00	1.656529e+00	
436	4.235000e-09	1.800000e+00	1.800000e+00	1.656551e+00	
437	4.245000e-09	1.800000e+00	1.800000e+00	1.656572e+00	
438	4.255000e-09	1.800000e+00	1.800000e+00	1.656594e+00	
439	4.265000e-09	1.800000e+00	1.800000e+00	1.656616e+00	
440	4.275000e-09	1.800000e+00	1.800000e+00	1.656638e+00	
441	4.285000e-09	1.800000e+00	1.800000e+00	1.656660e+00	
442	4.295000e-09	1.800000e+00	1.800000e+00	1.656682e+00	
443	4.305000e-09	1.800000e+00	1.800000e+00	1.656704e+00	
444	4.315000e-09	1.800000e+00	1.800000e+00	1.656726e+00	
445	4.325000e-09	1.800000e+00	1.800000e+00	1.656748e+00	
446	4.335000e-09	1.800000e+00	1.800000e+00	1.656770e+00	
447	4.345000e-09	1.800000e+00	1.800000e+00	1.656792e+00	
448	4.355000e-09	1.800000e+00	1.800000e+00	1.656814e+00	
449	4.365000e-09	1.800000e+00	1.800000e+00	1.656836e+00	
450	4.375000e-09	1.800000e+00	1.800000e+00	1.656858e+00	
451	4.385000e-09	1.800000e+00	1.800000e+00	1.656879e+00	
452	4.395000e-09	1.800000e+00	1.800000e+00	1.656901e+00	
453	4.405000e-09	1.800000e+00	1.800000e+00	1.656923e+00	
454	4.415000e-09	1.800000e+00	1.800000e+00	1.656945e+00	
455	4.425000e-09	1.800000e+00	1.800000e+00	1.656967e+00	
456	4.435000e-09	1.800000e+00	1.800000e+00	1.656989e+00	
457	4.445000e-09	1.800000e+00	1.800000e+00	1.657011e+00	
458	4.455000e-09	1.800000e+00	1.800000e+00	1.657033e+00	
459	4.465000e-09	1.800000e+00	1.800000e+00	1.657054e+00	
460	4.475000e-09	1.800000e+00	1.800000e+00	1.657076e+00	

Index   time            v(wl)           v(bl)           v(blb)          
--------------------------------------------------------------------------------
461	4.485000e-09	1.800000e+00	1.800000e+00	1.657098e+00	
462	4.495000e-09	1.800000e+00	1.800000e+00	1.657120e+00	
463	4.505000e-09	1.800000e+00	1.800000e+00	1.657142e+00	
464	4.515000e-09	1.800000e+00	1.800000e+00	1.657164e+00	
465	4.525000e-09	1.800000e+00	1.800000e+00	1.657185e+00	
466	4.535000e-09	1.800000e+00	1.800000e+00	1.657207e+00	
467	4.545000e-09	1.800000e+00	1.800000e+00	1.657229e+00	
468	4.555000e-09	1.800000e+00	1.800000e+00	1.657251e+00	
469	4.565000e-09	1.800000e+00	1.800000e+00	1.657273e+00	
470	4.575000e-09	1.800000e+00	1.800000e+00	1.657294e+00	
471	4.585000e-09	1.800000e+00	1.800000e+00	1.657316e+00	
472	4.595000e-09	1.800000e+00	1.800000e+00	1.657338e+00	
473	4.605000e-09	1.800000e+00	1.800000e+00	1.657360e+00	
474	4.615000e-09	1.800000e+00	1.800000e+00	1.657382e+00	
475	4.625000e-09	1.800000e+00	1.800000e+00	1.657403e+00	
476	4.635000e-09	1.800000e+00	1.800000e+00	1.657425e+00	
477	4.645000e-09	1.800000e+00	1.800000e+00	1.657447e+00	
478	4.655000e-09	1.800000e+00	1.800000e+00	1.657469e+00	
479	4.665000e-09	1.800000e+00	1.800000e+00	1.657490e+00	
480	4.675000e-09	1.800000e+00	1.800000e+00	1.657512e+00	
481	4.685000e-09	1.800000e+00	1.800000e+00	1.657534e+00	
482	4.695000e-09	1.800000e+00	1.800000e+00	1.657556e+00	
483	4.705000e-09	1.800000e+00	1.800000e+00	1.657577e+00	
484	4.715000e-09	1.800000e+00	1.800000e+00	1.657599e+00	
485	4.725000e-09	1.800000e+00	1.800000e+00	1.657621e+00	
486	4.735000e-09	1.800000e+00	1.800000e+00	1.657643e+00	
487	4.745000e-09	1.800000e+00	1.800000e+00	1.657664e+00	
488	4.755000e-09	1.800000e+00	1.800000e+00	1.657686e+00	
489	4.765000e-09	1.800000e+00	1.800000e+00	1.657708e+00	
490	4.775000e-09	1.800000e+00	1.800000e+00	1.657729e+00	
491	4.785000e-09	1.800000e+00	1.800000e+00	1.657751e+00	
492	4.795000e-09	1.800000e+00	1.800000e+00	1.657773e+00	
493	4.805000e-09	1.800000e+00	1.800000e+00	1.657794e+00	
494	4.815000e-09	1.800000e+00	1.800000e+00	1.657816e+00	
495	4.825000e-09	1.800000e+00	1.800000e+00	1.657838e+00	
496	4.835000e-09	1.800000e+00	1.800000e+00	1.657860e+00	
497	4.845000e-09	1.800000e+00	1.800000e+00	1.657881e+00	
498	4.855000e-09	1.800000e+00	1.800000e+00	1.657903e+00	
499	4.865000e-09	1.800000e+00	1.800000e+00	1.657925e+00	
500	4.875000e-09	1.800000e+00	1.800000e+00	1.657946e+00	
501	4.885000e-09	1.800000e+00	1.800000e+00	1.657968e+00	
502	4.895000e-09	1.800000e+00	1.800000e+00	1.657989e+00	
503	4.905000e-09	1.800000e+00	1.800000e+00	1.658011e+00	
504	4.915000e-09	1.800000e+00	1.800000e+00	1.658033e+00	
505	4.925000e-09	1.800000e+00	1.800000e+00	1.658054e+00	
506	4.935000e-09	1.800000e+00	1.800000e+00	1.658076e+00	
507	4.945000e-09	1.800000e+00	1.800000e+00	1.658098e+00	
508	4.955000e-09	1.800000e+00	1.800000e+00	1.658119e+00	
509	4.965000e-09	1.800000e+00	1.800000e+00	1.658141e+00	
510	4.975000e-09	1.800000e+00	1.800000e+00	1.658162e+00	
511	4.985000e-09	1.800000e+00	1.800000e+00	1.658184e+00	
512	4.995000e-09	1.800000e+00	1.800000e+00	1.658206e+00	
513	5.005000e-09	1.800000e+00	1.800000e+00	1.658227e+00	
514	5.015000e-09	1.800000e+00	1.800000e+00	1.658249e+00	
515	5.025000e-09	1.800000e+00	1.800000e+00	1.658270e+00	
516	5.035000e-09	1.800000e+00	1.800000e+00	1.658292e+00	
517	5.045000e-09	1.800000e+00	1.800000e+00	1.658314e+00	
518	5.055000e-09	1.800000e+00	1.800000e+00	1.658335e+00	

Index   time            v(wl)           v(bl)           v(blb)          
--------------------------------------------------------------------------------
519	5.065000e-09	1.800000e+00	1.800000e+00	1.658357e+00	
520	5.075000e-09	1.800000e+00	1.800000e+00	1.658378e+00	
521	5.085000e-09	1.800000e+00	1.800000e+00	1.658400e+00	
522	5.095000e-09	1.800000e+00	1.800000e+00	1.658421e+00	
523	5.105000e-09	1.800000e+00	1.800000e+00	1.658443e+00	
524	5.115000e-09	1.800000e+00	1.800000e+00	1.658465e+00	
525	5.125000e-09	1.800000e+00	1.800000e+00	1.658486e+00	
526	5.135000e-09	1.800000e+00	1.800000e+00	1.658508e+00	
527	5.145000e-09	1.800000e+00	1.800000e+00	1.658529e+00	
528	5.155000e-09	1.800000e+00	1.800000e+00	1.658551e+00	
529	5.165000e-09	1.800000e+00	1.800000e+00	1.658572e+00	
530	5.175000e-09	1.800000e+00	1.800000e+00	1.658594e+00	
531	5.185000e-09	1.800000e+00	1.800000e+00	1.658615e+00	
532	5.195000e-09	1.800000e+00	1.800000e+00	1.658637e+00	
533	5.205000e-09	1.800000e+00	1.800000e+00	1.658658e+00	
534	5.215000e-09	1.800000e+00	1.800000e+00	1.658680e+00	
535	5.225000e-09	1.800000e+00	1.800000e+00	1.658701e+00	
536	5.235000e-09	1.800000e+00	1.800000e+00	1.658723e+00	
537	5.245000e-09	1.800000e+00	1.800000e+00	1.658744e+00	
538	5.255000e-09	1.800000e+00	1.800000e+00	1.658766e+00	
539	5.265000e-09	1.800000e+00	1.800000e+00	1.658787e+00	
540	5.275000e-09	1.800000e+00	1.800000e+00	1.658809e+00	
541	5.285000e-09	1.800000e+00	1.800000e+00	1.658830e+00	
542	5.295000e-09	1.800000e+00	1.800000e+00	1.658851e+00	
543	5.305000e-09	1.800000e+00	1.800000e+00	1.658873e+00	
544	5.315000e-09	1.800000e+00	1.800000e+00	1.658894e+00	
545	5.325000e-09	1.800000e+00	1.800000e+00	1.658916e+00	
546	5.335000e-09	1.800000e+00	1.800000e+00	1.658937e+00	
547	5.345000e-09	1.800000e+00	1.800000e+00	1.658959e+00	
548	5.355000e-09	1.800000e+00	1.800000e+00	1.658980e+00	
549	5.365000e-09	1.800000e+00	1.800000e+00	1.659002e+00	
550	5.375000e-09	1.800000e+00	1.800000e+00	1.659023e+00	
551	5.385000e-09	1.800000e+00	1.800000e+00	1.659044e+00	
552	5.395000e-09	1.800000e+00	1.800000e+00	1.659066e+00	
553	5.405000e-09	1.800000e+00	1.800000e+00	1.659087e+00	
554	5.415000e-09	1.800000e+00	1.800000e+00	1.659109e+00	
555	5.425000e-09	1.800000e+00	1.800000e+00	1.659130e+00	
556	5.435000e-09	1.800000e+00	1.800000e+00	1.659151e+00	
557	5.445000e-09	1.800000e+00	1.800000e+00	1.659173e+00	
558	5.455000e-09	1.800000e+00	1.800000e+00	1.659194e+00	
559	5.465000e-09	1.800000e+00	1.800000e+00	1.659215e+00	
560	5.475000e-09	1.800000e+00	1.800000e+00	1.659237e+00	
561	5.485000e-09	1.800000e+00	1.800000e+00	1.659258e+00	
562	5.495000e-09	1.800000e+00	1.800000e+00	1.659280e+00	
563	5.505000e-09	1.800000e+00	1.800000e+00	1.659301e+00	
564	5.515000e-09	1.800000e+00	1.800000e+00	1.659322e+00	
565	5.525000e-09	1.800000e+00	1.800000e+00	1.659344e+00	
566	5.535000e-09	1.800000e+00	1.800000e+00	1.659365e+00	
567	5.545000e-09	1.800000e+00	1.800000e+00	1.659386e+00	
568	5.555000e-09	1.800000e+00	1.800000e+00	1.659408e+00	
569	5.565000e-09	1.800000e+00	1.800000e+00	1.659429e+00	
570	5.575000e-09	1.800000e+00	1.800000e+00	1.659450e+00	
571	5.585000e-09	1.800000e+00	1.800000e+00	1.659472e+00	
572	5.595000e-09	1.800000e+00	1.800000e+00	1.659493e+00	
573	5.605000e-09	1.800000e+00	1.800000e+00	1.659514e+00	
574	5.615000e-09	1.800000e+00	1.800000e+00	1.659536e+00	
575	5.625000e-09	1.800000e+00	1.800000e+00	1.659557e+00	
576	5.635000e-09	1.800000e+00	1.800000e+00	1.659578e+00	

Index   time            v(wl)           v(bl)           v(blb)          
--------------------------------------------------------------------------------
577	5.645000e-09	1.800000e+00	1.800000e+00	1.659599e+00	
578	5.655000e-09	1.800000e+00	1.800000e+00	1.659621e+00	
579	5.665000e-09	1.800000e+00	1.800000e+00	1.659642e+00	
580	5.675000e-09	1.800000e+00	1.800000e+00	1.659663e+00	
581	5.685000e-09	1.800000e+00	1.800000e+00	1.659685e+00	
582	5.695000e-09	1.800000e+00	1.800000e+00	1.659706e+00	
583	5.705000e-09	1.800000e+00	1.800000e+00	1.659727e+00	
584	5.715000e-09	1.800000e+00	1.800000e+00	1.659748e+00	
585	5.725000e-09	1.800000e+00	1.800000e+00	1.659770e+00	
586	5.735000e-09	1.800000e+00	1.800000e+00	1.659791e+00	
587	5.745000e-09	1.800000e+00	1.800000e+00	1.659812e+00	
588	5.755000e-09	1.800000e+00	1.800000e+00	1.659833e+00	
589	5.765000e-09	1.800000e+00	1.800000e+00	1.659855e+00	
590	5.775000e-09	1.800000e+00	1.800000e+00	1.659876e+00	
591	5.785000e-09	1.800000e+00	1.800000e+00	1.659897e+00	
592	5.795000e-09	1.800000e+00	1.800000e+00	1.659918e+00	
593	5.805000e-09	1.800000e+00	1.800000e+00	1.659940e+00	
594	5.815000e-09	1.800000e+00	1.800000e+00	1.659961e+00	
595	5.825000e-09	1.800000e+00	1.800000e+00	1.659982e+00	
596	5.835000e-09	1.800000e+00	1.800000e+00	1.660003e+00	
597	5.845000e-09	1.800000e+00	1.800000e+00	1.660024e+00	
598	5.855000e-09	1.800000e+00	1.800000e+00	1.660046e+00	
599	5.865000e-09	1.800000e+00	1.800000e+00	1.660067e+00	
600	5.875000e-09	1.800000e+00	1.800000e+00	1.660088e+00	
601	5.885000e-09	1.800000e+00	1.800000e+00	1.660109e+00	
602	5.895000e-09	1.800000e+00	1.800000e+00	1.660130e+00	
603	5.905000e-09	1.800000e+00	1.800000e+00	1.660151e+00	
604	5.915000e-09	1.800000e+00	1.800000e+00	1.660173e+00	
605	5.925000e-09	1.800000e+00	1.800000e+00	1.660194e+00	
606	5.935000e-09	1.800000e+00	1.800000e+00	1.660215e+00	
607	5.945000e-09	1.800000e+00	1.800000e+00	1.660236e+00	
608	5.955000e-09	1.800000e+00	1.800000e+00	1.660257e+00	
609	5.965000e-09	1.800000e+00	1.800000e+00	1.660278e+00	
610	5.975000e-09	1.800000e+00	1.800000e+00	1.660300e+00	
611	5.985000e-09	1.800000e+00	1.800000e+00	1.660321e+00	
612	5.995000e-09	1.800000e+00	1.800000e+00	1.660342e+00	
613	6.005000e-09	1.800000e+00	1.800000e+00	1.660363e+00	
614	6.015000e-09	1.800000e+00	1.800000e+00	1.660384e+00	
615	6.025000e-09	1.800000e+00	1.800000e+00	1.660405e+00	
616	6.035000e-09	1.800000e+00	1.800000e+00	1.660426e+00	
617	6.045000e-09	1.800000e+00	1.800000e+00	1.660447e+00	
618	6.055000e-09	1.800000e+00	1.800000e+00	1.660468e+00	
619	6.065000e-09	1.800000e+00	1.800000e+00	1.660490e+00	
620	6.075000e-09	1.800000e+00	1.800000e+00	1.660511e+00	
621	6.085000e-09	1.800000e+00	1.800000e+00	1.660532e+00	
622	6.095000e-09	1.800000e+00	1.800000e+00	1.660553e+00	
623	6.105000e-09	1.800000e+00	1.800000e+00	1.660574e+00	
624	6.115000e-09	1.800000e+00	1.800000e+00	1.660595e+00	
625	6.125000e-09	1.800000e+00	1.800000e+00	1.660616e+00	
626	6.135000e-09	1.800000e+00	1.800000e+00	1.660637e+00	
627	6.145000e-09	1.800000e+00	1.800000e+00	1.660658e+00	
628	6.155000e-09	1.800000e+00	1.800000e+00	1.660679e+00	
629	6.165000e-09	1.800000e+00	1.800000e+00	1.660700e+00	
630	6.175000e-09	1.800000e+00	1.800000e+00	1.660721e+00	
631	6.185000e-09	1.800000e+00	1.800000e+00	1.660742e+00	
632	6.195000e-09	1.800000e+00	1.800000e+00	1.660763e+00	
633	6.205000e-09	1.800000e+00	1.800000e+00	1.660784e+00	
634	6.215000e-09	1.800000e+00	1.800000e+00	1.660805e+00	

Index   time            v(wl)           v(bl)           v(blb)          
--------------------------------------------------------------------------------
635	6.225000e-09	1.800000e+00	1.800000e+00	1.660826e+00	
636	6.235000e-09	1.800000e+00	1.800000e+00	1.660847e+00	
637	6.245000e-09	1.800000e+00	1.800000e+00	1.660869e+00	
638	6.255000e-09	1.800000e+00	1.800000e+00	1.660890e+00	
639	6.265000e-09	1.800000e+00	1.800000e+00	1.660911e+00	
640	6.275000e-09	1.800000e+00	1.800000e+00	1.660932e+00	
641	6.285000e-09	1.800000e+00	1.800000e+00	1.660953e+00	
642	6.295000e-09	1.800000e+00	1.800000e+00	1.660974e+00	
643	6.305000e-09	1.800000e+00	1.800000e+00	1.660995e+00	
644	6.315000e-09	1.800000e+00	1.800000e+00	1.661015e+00	
645	6.325000e-09	1.800000e+00	1.800000e+00	1.661036e+00	
646	6.335000e-09	1.800000e+00	1.800000e+00	1.661057e+00	
647	6.345000e-09	1.800000e+00	1.800000e+00	1.661078e+00	
648	6.355000e-09	1.800000e+00	1.800000e+00	1.661099e+00	
649	6.365000e-09	1.800000e+00	1.800000e+00	1.661120e+00	
650	6.375000e-09	1.800000e+00	1.800000e+00	1.661141e+00	
651	6.385000e-09	1.800000e+00	1.800000e+00	1.661162e+00	
652	6.395000e-09	1.800000e+00	1.800000e+00	1.661183e+00	
653	6.405000e-09	1.800000e+00	1.800000e+00	1.661204e+00	
654	6.415000e-09	1.800000e+00	1.800000e+00	1.661225e+00	
655	6.425000e-09	1.800000e+00	1.800000e+00	1.661246e+00	
656	6.435000e-09	1.800000e+00	1.800000e+00	1.661267e+00	
657	6.445000e-09	1.800000e+00	1.800000e+00	1.661288e+00	
658	6.455000e-09	1.800000e+00	1.800000e+00	1.661309e+00	
659	6.465000e-09	1.800000e+00	1.800000e+00	1.661330e+00	
660	6.475000e-09	1.800000e+00	1.800000e+00	1.661351e+00	
661	6.485000e-09	1.800000e+00	1.800000e+00	1.661371e+00	
662	6.495000e-09	1.800000e+00	1.800000e+00	1.661392e+00	
663	6.505000e-09	1.800000e+00	1.800000e+00	1.661413e+00	
664	6.515000e-09	1.800000e+00	1.800000e+00	1.661434e+00	
665	6.525000e-09	1.800000e+00	1.800000e+00	1.661455e+00	
666	6.535000e-09	1.800000e+00	1.800000e+00	1.661476e+00	
667	6.545000e-09	1.800000e+00	1.800000e+00	1.661497e+00	
668	6.555000e-09	1.800000e+00	1.800000e+00	1.661518e+00	
669	6.565000e-09	1.800000e+00	1.800000e+00	1.661539e+00	
670	6.575000e-09	1.800000e+00	1.800000e+00	1.661559e+00	
671	6.585000e-09	1.800000e+00	1.800000e+00	1.661580e+00	
672	6.595000e-09	1.800000e+00	1.800000e+00	1.661601e+00	
673	6.605000e-09	1.800000e+00	1.800000e+00	1.661622e+00	
674	6.615000e-09	1.800000e+00	1.800000e+00	1.661643e+00	
675	6.625000e-09	1.800000e+00	1.800000e+00	1.661664e+00	
676	6.635000e-09	1.800000e+00	1.800000e+00	1.661685e+00	
677	6.645000e-09	1.800000e+00	1.800000e+00	1.661705e+00	
678	6.655000e-09	1.800000e+00	1.800000e+00	1.661726e+00	
679	6.665000e-09	1.800000e+00	1.800000e+00	1.661747e+00	
680	6.675000e-09	1.800000e+00	1.800000e+00	1.661768e+00	
681	6.685000e-09	1.800000e+00	1.800000e+00	1.661789e+00	
682	6.695000e-09	1.800000e+00	1.800000e+00	1.661809e+00	
683	6.705000e-09	1.800000e+00	1.800000e+00	1.661830e+00	
684	6.715000e-09	1.800000e+00	1.800000e+00	1.661851e+00	
685	6.725000e-09	1.800000e+00	1.800000e+00	1.661872e+00	
686	6.735000e-09	1.800000e+00	1.800000e+00	1.661893e+00	
687	6.745000e-09	1.800000e+00	1.800000e+00	1.661913e+00	
688	6.755000e-09	1.800000e+00	1.800000e+00	1.661934e+00	
689	6.765000e-09	1.800000e+00	1.800000e+00	1.661955e+00	
690	6.775000e-09	1.800000e+00	1.800000e+00	1.661976e+00	
691	6.785000e-09	1.800000e+00	1.800000e+00	1.661997e+00	
692	6.795000e-09	1.800000e+00	1.800000e+00	1.662017e+00	

Index   time            v(wl)           v(bl)           v(blb)          
--------------------------------------------------------------------------------
693	6.805000e-09	1.800000e+00	1.800000e+00	1.662038e+00	
694	6.815000e-09	1.800000e+00	1.800000e+00	1.662059e+00	
695	6.825000e-09	1.800000e+00	1.800000e+00	1.662080e+00	
696	6.835000e-09	1.800000e+00	1.800000e+00	1.662100e+00	
697	6.845000e-09	1.800000e+00	1.800000e+00	1.662121e+00	
698	6.855000e-09	1.800000e+00	1.800000e+00	1.662142e+00	
699	6.865000e-09	1.800000e+00	1.800000e+00	1.662162e+00	
700	6.875000e-09	1.800000e+00	1.800000e+00	1.662183e+00	
701	6.885000e-09	1.800000e+00	1.800000e+00	1.662204e+00	
702	6.895000e-09	1.800000e+00	1.800000e+00	1.662225e+00	
703	6.905000e-09	1.800000e+00	1.800000e+00	1.662245e+00	
704	6.915000e-09	1.800000e+00	1.800000e+00	1.662266e+00	
705	6.925000e-09	1.800000e+00	1.800000e+00	1.662287e+00	
706	6.935000e-09	1.800000e+00	1.800000e+00	1.662307e+00	
707	6.945000e-09	1.800000e+00	1.800000e+00	1.662328e+00	
708	6.955000e-09	1.800000e+00	1.800000e+00	1.662349e+00	
709	6.965000e-09	1.800000e+00	1.800000e+00	1.662370e+00	
710	6.975000e-09	1.800000e+00	1.800000e+00	1.662390e+00	
711	6.985000e-09	1.800000e+00	1.800000e+00	1.662411e+00	
712	6.995000e-09	1.800000e+00	1.800000e+00	1.662432e+00	
713	7.005000e-09	1.800000e+00	1.800000e+00	1.662452e+00	
714	7.015000e-09	1.800000e+00	1.800000e+00	1.662473e+00	
715	7.025000e-09	1.800000e+00	1.800000e+00	1.662494e+00	
716	7.035000e-09	1.800000e+00	1.800000e+00	1.662514e+00	
717	7.045000e-09	1.800000e+00	1.800000e+00	1.662535e+00	
718	7.055000e-09	1.800000e+00	1.800000e+00	1.662556e+00	
719	7.065000e-09	1.800000e+00	1.800000e+00	1.662576e+00	
720	7.075000e-09	1.800000e+00	1.800000e+00	1.662597e+00	
721	7.085000e-09	1.800000e+00	1.800000e+00	1.662617e+00	
722	7.095000e-09	1.800000e+00	1.800000e+00	1.662638e+00	
723	7.105000e-09	1.800000e+00	1.800000e+00	1.662659e+00	
724	7.115000e-09	1.800000e+00	1.800000e+00	1.662679e+00	
725	7.125000e-09	1.800000e+00	1.800000e+00	1.662700e+00	
726	7.135000e-09	1.800000e+00	1.800000e+00	1.662721e+00	
727	7.145000e-09	1.800000e+00	1.800000e+00	1.662741e+00	
728	7.155000e-09	1.800000e+00	1.800000e+00	1.662762e+00	
729	7.165000e-09	1.800000e+00	1.800000e+00	1.662782e+00	
730	7.175000e-09	1.800000e+00	1.800000e+00	1.662803e+00	
731	7.185000e-09	1.800000e+00	1.800000e+00	1.662824e+00	
732	7.195000e-09	1.800000e+00	1.800000e+00	1.662844e+00	
733	7.205000e-09	1.800000e+00	1.800000e+00	1.662865e+00	
734	7.215000e-09	1.800000e+00	1.800000e+00	1.662885e+00	
735	7.225000e-09	1.800000e+00	1.800000e+00	1.662906e+00	
736	7.235000e-09	1.800000e+00	1.800000e+00	1.662926e+00	
737	7.245000e-09	1.800000e+00	1.800000e+00	1.662947e+00	
738	7.255000e-09	1.800000e+00	1.800000e+00	1.662968e+00	
739	7.265000e-09	1.800000e+00	1.800000e+00	1.662988e+00	
740	7.275000e-09	1.800000e+00	1.800000e+00	1.663009e+00	
741	7.285000e-09	1.800000e+00	1.800000e+00	1.663029e+00	
742	7.295000e-09	1.800000e+00	1.800000e+00	1.663050e+00	
743	7.305000e-09	1.800000e+00	1.800000e+00	1.663070e+00	
744	7.315000e-09	1.800000e+00	1.800000e+00	1.663091e+00	
745	7.325000e-09	1.800000e+00	1.800000e+00	1.663111e+00	
746	7.335000e-09	1.800000e+00	1.800000e+00	1.663132e+00	
747	7.345000e-09	1.800000e+00	1.800000e+00	1.663152e+00	
748	7.355000e-09	1.800000e+00	1.800000e+00	1.663173e+00	
749	7.365000e-09	1.800000e+00	1.800000e+00	1.663193e+00	
750	7.375000e-09	1.800000e+00	1.800000e+00	1.663214e+00	

Index   time            v(wl)           v(bl)           v(blb)          
--------------------------------------------------------------------------------
751	7.385000e-09	1.800000e+00	1.800000e+00	1.663234e+00	
752	7.395000e-09	1.800000e+00	1.800000e+00	1.663255e+00	
753	7.405000e-09	1.800000e+00	1.800000e+00	1.663275e+00	
754	7.415000e-09	1.800000e+00	1.800000e+00	1.663296e+00	
755	7.425000e-09	1.800000e+00	1.800000e+00	1.663316e+00	
756	7.435000e-09	1.800000e+00	1.800000e+00	1.663337e+00	
757	7.445000e-09	1.800000e+00	1.800000e+00	1.663357e+00	
758	7.455000e-09	1.800000e+00	1.800000e+00	1.663378e+00	
759	7.465000e-09	1.800000e+00	1.800000e+00	1.663398e+00	
760	7.475000e-09	1.800000e+00	1.800000e+00	1.663419e+00	
761	7.485000e-09	1.800000e+00	1.800000e+00	1.663439e+00	
762	7.495000e-09	1.800000e+00	1.800000e+00	1.663460e+00	
763	7.505000e-09	1.800000e+00	1.800000e+00	1.663480e+00	
764	7.515000e-09	1.800000e+00	1.800000e+00	1.663500e+00	
765	7.525000e-09	1.800000e+00	1.800000e+00	1.663521e+00	
766	7.535000e-09	1.800000e+00	1.800000e+00	1.663541e+00	
767	7.545000e-09	1.800000e+00	1.800000e+00	1.663562e+00	
768	7.555000e-09	1.800000e+00	1.800000e+00	1.663582e+00	
769	7.565000e-09	1.800000e+00	1.800000e+00	1.663603e+00	
770	7.575000e-09	1.800000e+00	1.800000e+00	1.663623e+00	
771	7.585000e-09	1.800000e+00	1.800000e+00	1.663643e+00	
772	7.595000e-09	1.800000e+00	1.800000e+00	1.663664e+00	
773	7.605000e-09	1.800000e+00	1.800000e+00	1.663684e+00	
774	7.615000e-09	1.800000e+00	1.800000e+00	1.663705e+00	
775	7.625000e-09	1.800000e+00	1.800000e+00	1.663725e+00	
776	7.635000e-09	1.800000e+00	1.800000e+00	1.663745e+00	
777	7.645000e-09	1.800000e+00	1.800000e+00	1.663766e+00	
778	7.655000e-09	1.800000e+00	1.800000e+00	1.663786e+00	
779	7.665000e-09	1.800000e+00	1.800000e+00	1.663807e+00	
780	7.675000e-09	1.800000e+00	1.800000e+00	1.663827e+00	
781	7.685000e-09	1.800000e+00	1.800000e+00	1.663847e+00	
782	7.695000e-09	1.800000e+00	1.800000e+00	1.663868e+00	
783	7.705000e-09	1.800000e+00	1.800000e+00	1.663888e+00	
784	7.715000e-09	1.800000e+00	1.800000e+00	1.663908e+00	
785	7.725000e-09	1.800000e+00	1.800000e+00	1.663929e+00	
786	7.735000e-09	1.800000e+00	1.800000e+00	1.663949e+00	
787	7.745000e-09	1.800000e+00	1.800000e+00	1.663969e+00	
788	7.755000e-09	1.800000e+00	1.800000e+00	1.663990e+00	
789	7.765000e-09	1.800000e+00	1.800000e+00	1.664010e+00	
790	7.775000e-09	1.800000e+00	1.800000e+00	1.664030e+00	
791	7.785000e-09	1.800000e+00	1.800000e+00	1.664051e+00	
792	7.795000e-09	1.800000e+00	1.800000e+00	1.664071e+00	
793	7.805000e-09	1.800000e+00	1.800000e+00	1.664091e+00	
794	7.815000e-09	1.800000e+00	1.800000e+00	1.664112e+00	
795	7.825000e-09	1.800000e+00	1.800000e+00	1.664132e+00	
796	7.835000e-09	1.800000e+00	1.800000e+00	1.664152e+00	
797	7.845000e-09	1.800000e+00	1.800000e+00	1.664173e+00	
798	7.855000e-09	1.800000e+00	1.800000e+00	1.664193e+00	
799	7.865000e-09	1.800000e+00	1.800000e+00	1.664213e+00	
800	7.875000e-09	1.800000e+00	1.800000e+00	1.664233e+00	
801	7.885000e-09	1.800000e+00	1.800000e+00	1.664254e+00	
802	7.895000e-09	1.800000e+00	1.800000e+00	1.664274e+00	
803	7.905000e-09	1.800000e+00	1.800000e+00	1.664294e+00	
804	7.915000e-09	1.800000e+00	1.800000e+00	1.664314e+00	
805	7.925000e-09	1.800000e+00	1.800000e+00	1.664335e+00	
806	7.935000e-09	1.800000e+00	1.800000e+00	1.664355e+00	
807	7.945000e-09	1.800000e+00	1.800000e+00	1.664375e+00	
808	7.955000e-09	1.800000e+00	1.800000e+00	1.664395e+00	

Index   time            v(wl)           v(bl)           v(blb)          
--------------------------------------------------------------------------------
809	7.965000e-09	1.800000e+00	1.800000e+00	1.664416e+00	
810	7.975000e-09	1.800000e+00	1.800000e+00	1.664436e+00	
811	7.985000e-09	1.800000e+00	1.800000e+00	1.664456e+00	
812	7.995000e-09	1.800000e+00	1.800000e+00	1.664476e+00	
813	8.005000e-09	1.800000e+00	1.800000e+00	1.664497e+00	
814	8.015000e-09	1.800000e+00	1.800000e+00	1.664517e+00	
815	8.025000e-09	1.800000e+00	1.800000e+00	1.664537e+00	
816	8.035000e-09	1.800000e+00	1.800000e+00	1.664557e+00	
817	8.045000e-09	1.800000e+00	1.800000e+00	1.664578e+00	
818	8.055000e-09	1.800000e+00	1.800000e+00	1.664598e+00	
819	8.065000e-09	1.800000e+00	1.800000e+00	1.664618e+00	
820	8.075000e-09	1.800000e+00	1.800000e+00	1.664638e+00	
821	8.085000e-09	1.800000e+00	1.800000e+00	1.664658e+00	
822	8.095000e-09	1.800000e+00	1.800000e+00	1.664678e+00	
823	8.105000e-09	1.800000e+00	1.800000e+00	1.664699e+00	
824	8.115000e-09	1.800000e+00	1.800000e+00	1.664719e+00	
825	8.125000e-09	1.800000e+00	1.800000e+00	1.664739e+00	
826	8.135000e-09	1.800000e+00	1.800000e+00	1.664759e+00	
827	8.145000e-09	1.800000e+00	1.800000e+00	1.664779e+00	
828	8.155000e-09	1.800000e+00	1.800000e+00	1.664799e+00	
829	8.165000e-09	1.800000e+00	1.800000e+00	1.664820e+00	
830	8.175000e-09	1.800000e+00	1.800000e+00	1.664840e+00	
831	8.185000e-09	1.800000e+00	1.800000e+00	1.664860e+00	
832	8.195000e-09	1.800000e+00	1.800000e+00	1.664880e+00	
833	8.205000e-09	1.800000e+00	1.800000e+00	1.664900e+00	
834	8.215000e-09	1.800000e+00	1.800000e+00	1.664920e+00	
835	8.225000e-09	1.800000e+00	1.800000e+00	1.664940e+00	
836	8.235000e-09	1.800000e+00	1.800000e+00	1.664961e+00	
837	8.245000e-09	1.800000e+00	1.800000e+00	1.664981e+00	
838	8.255000e-09	1.800000e+00	1.800000e+00	1.665001e+00	
839	8.265000e-09	1.800000e+00	1.800000e+00	1.665021e+00	
840	8.275000e-09	1.800000e+00	1.800000e+00	1.665041e+00	
841	8.285000e-09	1.800000e+00	1.800000e+00	1.665061e+00	
842	8.295000e-09	1.800000e+00	1.800000e+00	1.665081e+00	
843	8.305000e-09	1.800000e+00	1.800000e+00	1.665101e+00	
844	8.315000e-09	1.800000e+00	1.800000e+00	1.665121e+00	
845	8.325000e-09	1.800000e+00	1.800000e+00	1.665142e+00	
846	8.335000e-09	1.800000e+00	1.800000e+00	1.665162e+00	
847	8.345000e-09	1.800000e+00	1.800000e+00	1.665182e+00	
848	8.355000e-09	1.800000e+00	1.800000e+00	1.665202e+00	
849	8.365000e-09	1.800000e+00	1.800000e+00	1.665222e+00	
850	8.375000e-09	1.800000e+00	1.800000e+00	1.665242e+00	
851	8.385000e-09	1.800000e+00	1.800000e+00	1.665262e+00	
852	8.395000e-09	1.800000e+00	1.800000e+00	1.665282e+00	
853	8.405000e-09	1.800000e+00	1.800000e+00	1.665302e+00	
854	8.415000e-09	1.800000e+00	1.800000e+00	1.665322e+00	
855	8.425000e-09	1.800000e+00	1.800000e+00	1.665342e+00	
856	8.435000e-09	1.800000e+00	1.800000e+00	1.665362e+00	
857	8.445000e-09	1.800000e+00	1.800000e+00	1.665382e+00	
858	8.455000e-09	1.800000e+00	1.800000e+00	1.665402e+00	
859	8.465000e-09	1.800000e+00	1.800000e+00	1.665422e+00	
860	8.475000e-09	1.800000e+00	1.800000e+00	1.665442e+00	
861	8.485000e-09	1.800000e+00	1.800000e+00	1.665462e+00	
862	8.495000e-09	1.800000e+00	1.800000e+00	1.665482e+00	
863	8.505000e-09	1.800000e+00	1.800000e+00	1.665502e+00	
864	8.515000e-09	1.800000e+00	1.800000e+00	1.665522e+00	
865	8.525000e-09	1.800000e+00	1.800000e+00	1.665542e+00	
866	8.535000e-09	1.800000e+00	1.800000e+00	1.665562e+00	

Index   time            v(wl)           v(bl)           v(blb)          
--------------------------------------------------------------------------------
867	8.545000e-09	1.800000e+00	1.800000e+00	1.665582e+00	
868	8.555000e-09	1.800000e+00	1.800000e+00	1.665602e+00	
869	8.565000e-09	1.800000e+00	1.800000e+00	1.665622e+00	
870	8.575000e-09	1.800000e+00	1.800000e+00	1.665642e+00	
871	8.585000e-09	1.800000e+00	1.800000e+00	1.665662e+00	
872	8.595000e-09	1.800000e+00	1.800000e+00	1.665682e+00	
873	8.605000e-09	1.800000e+00	1.800000e+00	1.665702e+00	
874	8.615000e-09	1.800000e+00	1.800000e+00	1.665722e+00	
875	8.625000e-09	1.800000e+00	1.800000e+00	1.665742e+00	
876	8.635000e-09	1.800000e+00	1.800000e+00	1.665762e+00	
877	8.645000e-09	1.800000e+00	1.800000e+00	1.665782e+00	
878	8.655000e-09	1.800000e+00	1.800000e+00	1.665802e+00	
879	8.665000e-09	1.800000e+00	1.800000e+00	1.665822e+00	
880	8.675000e-09	1.800000e+00	1.800000e+00	1.665842e+00	
881	8.685000e-09	1.800000e+00	1.800000e+00	1.665862e+00	
882	8.695000e-09	1.800000e+00	1.800000e+00	1.665882e+00	
883	8.705000e-09	1.800000e+00	1.800000e+00	1.665902e+00	
884	8.715000e-09	1.800000e+00	1.800000e+00	1.665922e+00	
885	8.725000e-09	1.800000e+00	1.800000e+00	1.665941e+00	
886	8.735000e-09	1.800000e+00	1.800000e+00	1.665961e+00	
887	8.745000e-09	1.800000e+00	1.800000e+00	1.665981e+00	
888	8.755000e-09	1.800000e+00	1.800000e+00	1.666001e+00	
889	8.765000e-09	1.800000e+00	1.800000e+00	1.666021e+00	
890	8.775000e-09	1.800000e+00	1.800000e+00	1.666041e+00	
891	8.785000e-09	1.800000e+00	1.800000e+00	1.666061e+00	
892	8.795000e-09	1.800000e+00	1.800000e+00	1.666081e+00	
893	8.805000e-09	1.800000e+00	1.800000e+00	1.666101e+00	
894	8.815000e-09	1.800000e+00	1.800000e+00	1.666120e+00	
895	8.825000e-09	1.800000e+00	1.800000e+00	1.666140e+00	
896	8.835000e-09	1.800000e+00	1.800000e+00	1.666160e+00	
897	8.845000e-09	1.800000e+00	1.800000e+00	1.666180e+00	
898	8.855000e-09	1.800000e+00	1.800000e+00	1.666200e+00	
899	8.865000e-09	1.800000e+00	1.800000e+00	1.666220e+00	
900	8.875000e-09	1.800000e+00	1.800000e+00	1.666240e+00	
901	8.885000e-09	1.800000e+00	1.800000e+00	1.666259e+00	
902	8.895000e-09	1.800000e+00	1.800000e+00	1.666279e+00	
903	8.905000e-09	1.800000e+00	1.800000e+00	1.666299e+00	
904	8.915000e-09	1.800000e+00	1.800000e+00	1.666319e+00	
905	8.925000e-09	1.800000e+00	1.800000e+00	1.666339e+00	
906	8.935000e-09	1.800000e+00	1.800000e+00	1.666359e+00	
907	8.945000e-09	1.800000e+00	1.800000e+00	1.666378e+00	
908	8.955000e-09	1.800000e+00	1.800000e+00	1.666398e+00	
909	8.965000e-09	1.800000e+00	1.800000e+00	1.666418e+00	
910	8.975000e-09	1.800000e+00	1.800000e+00	1.666438e+00	
911	8.985000e-09	1.800000e+00	1.800000e+00	1.666458e+00	
912	8.995000e-09	1.800000e+00	1.800000e+00	1.666477e+00	
913	9.005000e-09	1.800000e+00	1.800000e+00	1.666497e+00	
914	9.015000e-09	1.800000e+00	1.800000e+00	1.666517e+00	
915	9.025000e-09	1.800000e+00	1.800000e+00	1.666537e+00	
916	9.035000e-09	1.800000e+00	1.800000e+00	1.666557e+00	
917	9.045000e-09	1.800000e+00	1.800000e+00	1.666576e+00	
918	9.055000e-09	1.800000e+00	1.800000e+00	1.666596e+00	
919	9.065000e-09	1.800000e+00	1.800000e+00	1.666616e+00	
920	9.075000e-09	1.800000e+00	1.800000e+00	1.666636e+00	
921	9.085000e-09	1.800000e+00	1.800000e+00	1.666655e+00	
922	9.095000e-09	1.800000e+00	1.800000e+00	1.666675e+00	
923	9.105000e-09	1.800000e+00	1.800000e+00	1.666695e+00	
924	9.115000e-09	1.800000e+00	1.800000e+00	1.666715e+00	

Index   time            v(wl)           v(bl)           v(blb)          
--------------------------------------------------------------------------------
925	9.125000e-09	1.800000e+00	1.800000e+00	1.666734e+00	
926	9.135000e-09	1.800000e+00	1.800000e+00	1.666754e+00	
927	9.145000e-09	1.800000e+00	1.800000e+00	1.666774e+00	
928	9.155000e-09	1.800000e+00	1.800000e+00	1.666794e+00	
929	9.165000e-09	1.800000e+00	1.800000e+00	1.666813e+00	
930	9.175000e-09	1.800000e+00	1.800000e+00	1.666833e+00	
931	9.185000e-09	1.800000e+00	1.800000e+00	1.666853e+00	
932	9.195000e-09	1.800000e+00	1.800000e+00	1.666873e+00	
933	9.205000e-09	1.800000e+00	1.800000e+00	1.666892e+00	
934	9.215000e-09	1.800000e+00	1.800000e+00	1.666912e+00	
935	9.225000e-09	1.800000e+00	1.800000e+00	1.666932e+00	
936	9.235000e-09	1.800000e+00	1.800000e+00	1.666951e+00	
937	9.245000e-09	1.800000e+00	1.800000e+00	1.666971e+00	
938	9.255000e-09	1.800000e+00	1.800000e+00	1.666991e+00	
939	9.265000e-09	1.800000e+00	1.800000e+00	1.667010e+00	
940	9.275000e-09	1.800000e+00	1.800000e+00	1.667030e+00	
941	9.285000e-09	1.800000e+00	1.800000e+00	1.667050e+00	
942	9.295000e-09	1.800000e+00	1.800000e+00	1.667069e+00	
943	9.305000e-09	1.800000e+00	1.800000e+00	1.667089e+00	
944	9.315000e-09	1.800000e+00	1.800000e+00	1.667109e+00	
945	9.325000e-09	1.800000e+00	1.800000e+00	1.667128e+00	
946	9.335000e-09	1.800000e+00	1.800000e+00	1.667148e+00	
947	9.345000e-09	1.800000e+00	1.800000e+00	1.667168e+00	
948	9.355000e-09	1.800000e+00	1.800000e+00	1.667187e+00	
949	9.365000e-09	1.800000e+00	1.800000e+00	1.667207e+00	
950	9.375000e-09	1.800000e+00	1.800000e+00	1.667227e+00	
951	9.385000e-09	1.800000e+00	1.800000e+00	1.667246e+00	
952	9.395000e-09	1.800000e+00	1.800000e+00	1.667266e+00	
953	9.405000e-09	1.800000e+00	1.800000e+00	1.667286e+00	
954	9.415000e-09	1.800000e+00	1.800000e+00	1.667305e+00	
955	9.425000e-09	1.800000e+00	1.800000e+00	1.667325e+00	
956	9.435000e-09	1.800000e+00	1.800000e+00	1.667344e+00	
957	9.445000e-09	1.800000e+00	1.800000e+00	1.667364e+00	
958	9.455000e-09	1.800000e+00	1.800000e+00	1.667384e+00	
959	9.465000e-09	1.800000e+00	1.800000e+00	1.667403e+00	
960	9.475000e-09	1.800000e+00	1.800000e+00	1.667423e+00	
961	9.485000e-09	1.800000e+00	1.800000e+00	1.667442e+00	
962	9.495000e-09	1.800000e+00	1.800000e+00	1.667462e+00	
963	9.505000e-09	1.800000e+00	1.800000e+00	1.667482e+00	
964	9.515000e-09	1.800000e+00	1.800000e+00	1.667501e+00	
965	9.525000e-09	1.800000e+00	1.800000e+00	1.667521e+00	
966	9.535000e-09	1.800000e+00	1.800000e+00	1.667540e+00	
967	9.545000e-09	1.800000e+00	1.800000e+00	1.667560e+00	
968	9.555000e-09	1.800000e+00	1.800000e+00	1.667579e+00	
969	9.565000e-09	1.800000e+00	1.800000e+00	1.667599e+00	
970	9.575000e-09	1.800000e+00	1.800000e+00	1.667618e+00	
971	9.585000e-09	1.800000e+00	1.800000e+00	1.667638e+00	
972	9.595000e-09	1.800000e+00	1.800000e+00	1.667658e+00	
973	9.605000e-09	1.800000e+00	1.800000e+00	1.667677e+00	
974	9.615000e-09	1.800000e+00	1.800000e+00	1.667697e+00	
975	9.625000e-09	1.800000e+00	1.800000e+00	1.667716e+00	
976	9.635000e-09	1.800000e+00	1.800000e+00	1.667736e+00	
977	9.645000e-09	1.800000e+00	1.800000e+00	1.667755e+00	
978	9.655000e-09	1.800000e+00	1.800000e+00	1.667775e+00	
979	9.665000e-09	1.800000e+00	1.800000e+00	1.667794e+00	
980	9.675000e-09	1.800000e+00	1.800000e+00	1.667814e+00	
981	9.685000e-09	1.800000e+00	1.800000e+00	1.667833e+00	
982	9.695000e-09	1.800000e+00	1.800000e+00	1.667853e+00	

Index   time            v(wl)           v(bl)           v(blb)          
--------------------------------------------------------------------------------
983	9.705000e-09	1.800000e+00	1.800000e+00	1.667872e+00	
984	9.715000e-09	1.800000e+00	1.800000e+00	1.667892e+00	
985	9.725000e-09	1.800000e+00	1.800000e+00	1.667911e+00	
986	9.735000e-09	1.800000e+00	1.800000e+00	1.667931e+00	
987	9.745000e-09	1.800000e+00	1.800000e+00	1.667950e+00	
988	9.755000e-09	1.800000e+00	1.800000e+00	1.667970e+00	
989	9.765000e-09	1.800000e+00	1.800000e+00	1.667989e+00	
990	9.775000e-09	1.800000e+00	1.800000e+00	1.668009e+00	
991	9.785000e-09	1.800000e+00	1.800000e+00	1.668028e+00	
992	9.795000e-09	1.800000e+00	1.800000e+00	1.668048e+00	
993	9.805000e-09	1.800000e+00	1.800000e+00	1.668067e+00	
994	9.815000e-09	1.800000e+00	1.800000e+00	1.668086e+00	
995	9.825000e-09	1.800000e+00	1.800000e+00	1.668106e+00	
996	9.835000e-09	1.800000e+00	1.800000e+00	1.668125e+00	
997	9.845000e-09	1.800000e+00	1.800000e+00	1.668145e+00	
998	9.855000e-09	1.800000e+00	1.800000e+00	1.668164e+00	
999	9.865000e-09	1.800000e+00	1.800000e+00	1.668184e+00	
1000	9.875000e-09	1.800000e+00	1.800000e+00	1.668203e+00	
1001	9.885000e-09	1.800000e+00	1.800000e+00	1.668223e+00	
1002	9.895000e-09	1.800000e+00	1.800000e+00	1.668242e+00	
1003	9.905000e-09	1.800000e+00	1.800000e+00	1.668261e+00	
1004	9.915000e-09	1.800000e+00	1.800000e+00	1.668281e+00	
1005	9.925000e-09	1.800000e+00	1.800000e+00	1.668300e+00	
1006	9.935000e-09	1.800000e+00	1.800000e+00	1.668320e+00	
1007	9.945000e-09	1.800000e+00	1.800000e+00	1.668339e+00	
1008	9.955000e-09	1.800000e+00	1.800000e+00	1.668358e+00	
1009	9.965000e-09	1.800000e+00	1.800000e+00	1.668378e+00	
1010	9.975000e-09	1.800000e+00	1.800000e+00	1.668397e+00	
1011	9.985000e-09	1.800000e+00	1.800000e+00	1.668417e+00	
1012	9.995000e-09	1.800000e+00	1.800000e+00	1.668436e+00	
1013	1.000500e-08	1.800000e+00	1.800000e+00	1.668455e+00	
1014	1.001500e-08	1.800000e+00	1.800000e+00	1.668475e+00	
1015	1.002500e-08	1.800000e+00	1.800000e+00	1.668494e+00	
1016	1.003500e-08	1.800000e+00	1.800000e+00	1.668513e+00	
1017	1.004500e-08	1.800000e+00	1.800000e+00	1.668533e+00	
1018	1.005500e-08	1.800000e+00	1.800000e+00	1.668552e+00	
1019	1.006500e-08	1.800000e+00	1.800000e+00	1.668571e+00	
1020	1.007500e-08	1.800000e+00	1.800000e+00	1.668591e+00	
1021	1.008500e-08	1.800000e+00	1.800000e+00	1.668610e+00	
1022	1.009500e-08	1.800000e+00	1.800000e+00	1.668629e+00	
1023	1.010000e-08	1.800000e+00	1.800000e+00	1.668639e+00	
1024	1.010100e-08	1.782000e+00	1.797693e+00	1.625245e+00	
1025	1.010300e-08	1.746000e+00	1.793036e+00	1.476004e+00	
1026	1.010700e-08	1.674000e+00	1.785215e+00	1.038094e+00	
1027	1.011088e-08	1.604212e+00	1.779087e+00	7.836410e-01	
1028	1.011530e-08	1.524670e+00	1.773198e+00	6.229470e-01	
1029	1.012122e-08	1.417965e+00	1.766481e+00	4.482219e-01	
1030	1.012785e-08	1.298736e+00	1.760053e+00	2.990634e-01	
1031	1.013785e-08	1.118736e+00	1.751903e+00	9.439342e-02	
1032	1.014785e-08	9.387358e-01	1.745157e+00	-7.72056e-02	
1033	1.015785e-08	7.587358e-01	1.739534e+00	-2.42278e-01	
1034	1.016785e-08	5.787358e-01	1.734803e+00	-3.78709e-01	
1035	1.017785e-08	3.987358e-01	1.730830e+00	-5.11983e-01	
1036	1.018785e-08	2.187358e-01	1.727462e+00	-6.29998e-01	
1037	1.019785e-08	3.873579e-02	1.724618e+00	-7.50868e-01	
1038	1.020000e-08	0.000000e+00	1.724057e+00	-7.72107e-01	
1039	1.020100e-08	0.000000e+00	1.725591e+00	-7.69849e-01	
1040	1.020300e-08	0.000000e+00	1.728656e+00	-7.59631e-01	

Index   time            v(wl)           v(bl)           v(blb)          
--------------------------------------------------------------------------------
1041	1.020700e-08	0.000000e+00	1.734321e+00	-7.38798e-01	
1042	1.021500e-08	0.000000e+00	1.744066e+00	-7.06061e-01	
1043	1.022500e-08	0.000000e+00	1.753929e+00	-6.73035e-01	
1044	1.023500e-08	0.000000e+00	1.761838e+00	-6.48017e-01	
1045	1.024500e-08	0.000000e+00	1.768277e+00	-6.26242e-01	
1046	1.025500e-08	0.000000e+00	1.773557e+00	-6.08310e-01	
1047	1.026500e-08	0.000000e+00	1.777924e+00	-5.91207e-01	
1048	1.027500e-08	0.000000e+00	1.781541e+00	-5.76183e-01	
1049	1.028500e-08	0.000000e+00	1.784557e+00	-5.61015e-01	
1050	1.029500e-08	0.000000e+00	1.787067e+00	-5.47094e-01	
1051	1.030500e-08	0.000000e+00	1.789168e+00	-5.32633e-01	
1052	1.031500e-08	0.000000e+00	1.790921e+00	-5.18983e-01	
1053	1.032500e-08	0.000000e+00	1.792393e+00	-5.04640e-01	
1054	1.033500e-08	0.000000e+00	1.793621e+00	-4.90849e-01	
1055	1.034500e-08	0.000000e+00	1.794654e+00	-4.76307e-01	
1056	1.035500e-08	0.000000e+00	1.795515e+00	-4.62130e-01	
1057	1.036500e-08	0.000000e+00	1.796242e+00	-4.47166e-01	
1058	1.037500e-08	0.000000e+00	1.796846e+00	-4.32397e-01	
1059	1.038500e-08	0.000000e+00	1.797357e+00	-4.16785e-01	
1060	1.039500e-08	0.000000e+00	1.797782e+00	-4.01175e-01	
1061	1.040500e-08	0.000000e+00	1.798142e+00	-3.84613e-01	
1062	1.041500e-08	0.000000e+00	1.798440e+00	-3.67793e-01	
1063	1.042500e-08	0.000000e+00	1.798693e+00	-3.49799e-01	
1064	1.043500e-08	0.000000e+00	1.798903e+00	-3.31139e-01	
1065	1.044500e-08	0.000000e+00	1.799081e+00	-3.10847e-01	
1066	1.045500e-08	0.000000e+00	1.799228e+00	-2.89134e-01	
1067	1.046500e-08	0.000000e+00	1.799354e+00	-2.64758e-01	
1068	1.047500e-08	0.000000e+00	1.799457e+00	-2.37223e-01	
1069	1.048500e-08	0.000000e+00	1.799546e+00	-2.04048e-01	
1070	1.049500e-08	0.000000e+00	1.799618e+00	-1.61733e-01	
1071	1.050500e-08	0.000000e+00	1.799681e+00	-1.00152e-01	
1072	1.051500e-08	0.000000e+00	1.799731e+00	9.678538e-03	
1073	1.052500e-08	0.000000e+00	1.799776e+00	2.299326e-01	
1074	1.053500e-08	0.000000e+00	1.799811e+00	4.761640e-01	
1075	1.054452e-08	0.000000e+00	1.799841e+00	6.749428e-01	
1076	1.055452e-08	0.000000e+00	1.799865e+00	8.542530e-01	
1077	1.056452e-08	0.000000e+00	1.799888e+00	1.004156e+00	
1078	1.057452e-08	0.000000e+00	1.799905e+00	1.131970e+00	
1079	1.058452e-08	0.000000e+00	1.799922e+00	1.238251e+00	
1080	1.059452e-08	0.000000e+00	1.799933e+00	1.328917e+00	
1081	1.060452e-08	0.000000e+00	1.799945e+00	1.403963e+00	
1082	1.061452e-08	0.000000e+00	1.799953e+00	1.468130e+00	
1083	1.062452e-08	0.000000e+00	1.799962e+00	1.520988e+00	
1084	1.063452e-08	0.000000e+00	1.799967e+00	1.566354e+00	
1085	1.064452e-08	0.000000e+00	1.799973e+00	1.603516e+00	
1086	1.065452e-08	0.000000e+00	1.799976e+00	1.635580e+00	
1087	1.066452e-08	0.000000e+00	1.799981e+00	1.661667e+00	
1088	1.067452e-08	0.000000e+00	1.799983e+00	1.684334e+00	
1089	1.068452e-08	0.000000e+00	1.799987e+00	1.702619e+00	
1090	1.069452e-08	0.000000e+00	1.799988e+00	1.718646e+00	
1091	1.070452e-08	0.000000e+00	1.799991e+00	1.731436e+00	
1092	1.071452e-08	0.000000e+00	1.799991e+00	1.742786e+00	
1093	1.072452e-08	0.000000e+00	1.799994e+00	1.751721e+00	
1094	1.073452e-08	0.000000e+00	1.799994e+00	1.759771e+00	
1095	1.074452e-08	0.000000e+00	1.799996e+00	1.765999e+00	
1096	1.075452e-08	0.000000e+00	1.799996e+00	1.771720e+00	
1097	1.076452e-08	0.000000e+00	1.799997e+00	1.776049e+00	
1098	1.077452e-08	0.000000e+00	1.799997e+00	1.780125e+00	

Index   time            v(wl)           v(bl)           v(blb)          
--------------------------------------------------------------------------------
1099	1.078452e-08	0.000000e+00	1.799998e+00	1.783123e+00	
1100	1.079452e-08	0.000000e+00	1.799998e+00	1.786036e+00	
1101	1.080452e-08	0.000000e+00	1.799999e+00	1.788103e+00	
1102	1.081452e-08	0.000000e+00	1.799998e+00	1.790193e+00	
1103	1.082452e-08	0.000000e+00	1.799999e+00	1.791608e+00	
1104	1.083452e-08	0.000000e+00	1.799999e+00	1.793115e+00	
1105	1.084452e-08	0.000000e+00	1.800000e+00	1.794075e+00	
1106	1.085452e-08	0.000000e+00	1.799999e+00	1.795166e+00	
1107	1.086452e-08	0.000000e+00	1.800000e+00	1.795811e+00	
1108	1.087452e-08	0.000000e+00	1.799999e+00	1.796609e+00	
1109	1.088452e-08	0.000000e+00	1.800000e+00	1.797035e+00	
1110	1.089452e-08	0.000000e+00	1.799999e+00	1.797622e+00	
1111	1.090452e-08	0.000000e+00	1.800000e+00	1.797898e+00	
1112	1.091452e-08	0.000000e+00	1.799999e+00	1.798335e+00	
1113	1.092452e-08	0.000000e+00	1.800000e+00	1.798507e+00	
1114	1.093452e-08	0.000000e+00	1.799999e+00	1.798835e+00	
1115	1.094452e-08	0.000000e+00	1.800000e+00	1.798937e+00	
1116	1.095452e-08	0.000000e+00	1.800000e+00	1.799187e+00	
1117	1.096452e-08	0.000000e+00	1.800000e+00	1.799241e+00	
1118	1.097452e-08	0.000000e+00	1.800000e+00	1.799433e+00	
1119	1.098452e-08	0.000000e+00	1.800000e+00	1.799457e+00	
1120	1.099452e-08	0.000000e+00	1.800000e+00	1.799606e+00	
1121	1.100452e-08	0.000000e+00	1.800000e+00	1.799609e+00	
1122	1.101452e-08	0.000000e+00	1.800000e+00	1.799727e+00	
1123	1.102452e-08	0.000000e+00	1.800000e+00	1.799718e+00	
1124	1.103452e-08	0.000000e+00	1.800000e+00	1.799812e+00	
1125	1.104452e-08	0.000000e+00	1.800000e+00	1.799795e+00	
1126	1.105452e-08	0.000000e+00	1.800000e+00	1.799871e+00	
1127	1.106452e-08	0.000000e+00	1.800000e+00	1.799850e+00	
1128	1.107452e-08	0.000000e+00	1.800000e+00	1.799912e+00	
1129	1.108452e-08	0.000000e+00	1.800000e+00	1.799890e+00	
1130	1.109452e-08	0.000000e+00	1.800000e+00	1.799941e+00	
1131	1.110452e-08	0.000000e+00	1.800000e+00	1.799919e+00	
1132	1.111452e-08	0.000000e+00	1.800000e+00	1.799961e+00	
1133	1.112452e-08	0.000000e+00	1.800000e+00	1.799940e+00	
1134	1.113452e-08	0.000000e+00	1.800000e+00	1.799975e+00	
1135	1.114452e-08	0.000000e+00	1.800000e+00	1.799956e+00	
1136	1.115452e-08	0.000000e+00	1.800000e+00	1.799985e+00	
1137	1.116452e-08	0.000000e+00	1.800000e+00	1.799967e+00	
1138	1.117452e-08	0.000000e+00	1.800000e+00	1.799990e+00	
1139	1.118452e-08	0.000000e+00	1.800000e+00	1.799975e+00	
1140	1.119452e-08	0.000000e+00	1.800000e+00	1.799994e+00	
1141	1.120452e-08	0.000000e+00	1.800000e+00	1.799981e+00	
1142	1.121452e-08	0.000000e+00	1.800000e+00	1.799996e+00	
1143	1.122452e-08	0.000000e+00	1.800000e+00	1.799985e+00	
1144	1.123452e-08	0.000000e+00	1.800000e+00	1.799998e+00	
1145	1.124452e-08	0.000000e+00	1.800000e+00	1.799989e+00	
1146	1.125452e-08	0.000000e+00	1.800000e+00	1.799999e+00	
1147	1.126452e-08	0.000000e+00	1.800000e+00	1.799991e+00	
1148	1.127452e-08	0.000000e+00	1.800000e+00	1.799999e+00	
1149	1.128452e-08	0.000000e+00	1.800000e+00	1.799994e+00	
1150	1.129452e-08	0.000000e+00	1.800000e+00	1.799999e+00	
1151	1.130452e-08	0.000000e+00	1.800000e+00	1.799995e+00	
1152	1.131452e-08	0.000000e+00	1.800000e+00	1.799999e+00	
1153	1.132452e-08	0.000000e+00	1.800000e+00	1.799997e+00	
1154	1.133452e-08	0.000000e+00	1.800000e+00	1.799999e+00	
1155	1.134452e-08	0.000000e+00	1.800000e+00	1.799998e+00	
1156	1.135452e-08	0.000000e+00	1.800000e+00	1.799998e+00	

Index   time            v(wl)           v(bl)           v(blb)          
--------------------------------------------------------------------------------
1157	1.136452e-08	0.000000e+00	1.800000e+00	1.799999e+00	
1158	1.137452e-08	0.000000e+00	1.800000e+00	1.799998e+00	
1159	1.138452e-08	0.000000e+00	1.800000e+00	1.800000e+00	
1160	1.139452e-08	0.000000e+00	1.800000e+00	1.799998e+00	
1161	1.140452e-08	0.000000e+00	1.800000e+00	1.800001e+00	
1162	1.141452e-08	0.000000e+00	1.800000e+00	1.799997e+00	
1163	1.142452e-08	0.000000e+00	1.800000e+00	1.800002e+00	
1164	1.143452e-08	0.000000e+00	1.800000e+00	1.799997e+00	
1165	1.144452e-08	0.000000e+00	1.800000e+00	1.800002e+00	
1166	1.145452e-08	0.000000e+00	1.800000e+00	1.799997e+00	
1167	1.146452e-08	0.000000e+00	1.800000e+00	1.800003e+00	
1168	1.147452e-08	0.000000e+00	1.800000e+00	1.799996e+00	
1169	1.148452e-08	0.000000e+00	1.800000e+00	1.800003e+00	
1170	1.149452e-08	0.000000e+00	1.800000e+00	1.799996e+00	
1171	1.150452e-08	0.000000e+00	1.800000e+00	1.800003e+00	
1172	1.151452e-08	0.000000e+00	1.800000e+00	1.799996e+00	
1173	1.152452e-08	0.000000e+00	1.800000e+00	1.800004e+00	
1174	1.153452e-08	0.000000e+00	1.800000e+00	1.799996e+00	
1175	1.154452e-08	0.000000e+00	1.800000e+00	1.800004e+00	
1176	1.155452e-08	0.000000e+00	1.800000e+00	1.799995e+00	
1177	1.156452e-08	0.000000e+00	1.800000e+00	1.800004e+00	
1178	1.157452e-08	0.000000e+00	1.800000e+00	1.799995e+00	
1179	1.158452e-08	0.000000e+00	1.800000e+00	1.800005e+00	
1180	1.159452e-08	0.000000e+00	1.800000e+00	1.799995e+00	
1181	1.160452e-08	0.000000e+00	1.800000e+00	1.800005e+00	
1182	1.161452e-08	0.000000e+00	1.800000e+00	1.799995e+00	
1183	1.162452e-08	0.000000e+00	1.800000e+00	1.800005e+00	
1184	1.163452e-08	0.000000e+00	1.800000e+00	1.799995e+00	
1185	1.164452e-08	0.000000e+00	1.800000e+00	1.800005e+00	
1186	1.165452e-08	0.000000e+00	1.800000e+00	1.799994e+00	
1187	1.166452e-08	0.000000e+00	1.800000e+00	1.800005e+00	
1188	1.167452e-08	0.000000e+00	1.800000e+00	1.799994e+00	
1189	1.168452e-08	0.000000e+00	1.800000e+00	1.800005e+00	
1190	1.169452e-08	0.000000e+00	1.800000e+00	1.799994e+00	
1191	1.170452e-08	0.000000e+00	1.800000e+00	1.800006e+00	
1192	1.171452e-08	0.000000e+00	1.800000e+00	1.799994e+00	
1193	1.172452e-08	0.000000e+00	1.800000e+00	1.800006e+00	
1194	1.173452e-08	0.000000e+00	1.800000e+00	1.799994e+00	
1195	1.174452e-08	0.000000e+00	1.800000e+00	1.800006e+00	
1196	1.175452e-08	0.000000e+00	1.800000e+00	1.799994e+00	
1197	1.176452e-08	0.000000e+00	1.800000e+00	1.800006e+00	
1198	1.177452e-08	0.000000e+00	1.800000e+00	1.799994e+00	
1199	1.178452e-08	0.000000e+00	1.800000e+00	1.800006e+00	
1200	1.179452e-08	0.000000e+00	1.800000e+00	1.799994e+00	
1201	1.180452e-08	0.000000e+00	1.800000e+00	1.800006e+00	
1202	1.181452e-08	0.000000e+00	1.800000e+00	1.799994e+00	
1203	1.182452e-08	0.000000e+00	1.800000e+00	1.800006e+00	
1204	1.183452e-08	0.000000e+00	1.800000e+00	1.799994e+00	
1205	1.184452e-08	0.000000e+00	1.800000e+00	1.800006e+00	
1206	1.185452e-08	0.000000e+00	1.800000e+00	1.799994e+00	
1207	1.186452e-08	0.000000e+00	1.800000e+00	1.800006e+00	
1208	1.187452e-08	0.000000e+00	1.800000e+00	1.799994e+00	
1209	1.188452e-08	0.000000e+00	1.800000e+00	1.800006e+00	
1210	1.189452e-08	0.000000e+00	1.800000e+00	1.799994e+00	
1211	1.190452e-08	0.000000e+00	1.800000e+00	1.800006e+00	
1212	1.191452e-08	0.000000e+00	1.800000e+00	1.799994e+00	
1213	1.192452e-08	0.000000e+00	1.800000e+00	1.800006e+00	
1214	1.193452e-08	0.000000e+00	1.800000e+00	1.799994e+00	

Index   time            v(wl)           v(bl)           v(blb)          
--------------------------------------------------------------------------------
1215	1.194452e-08	0.000000e+00	1.800000e+00	1.800006e+00	
1216	1.195452e-08	0.000000e+00	1.800000e+00	1.799994e+00	
1217	1.196452e-08	0.000000e+00	1.800000e+00	1.800006e+00	
1218	1.197452e-08	0.000000e+00	1.800000e+00	1.799994e+00	
1219	1.198452e-08	0.000000e+00	1.800000e+00	1.800006e+00	
1220	1.199452e-08	0.000000e+00	1.800000e+00	1.799994e+00	
1221	1.200452e-08	0.000000e+00	1.800000e+00	1.800006e+00	
1222	1.201452e-08	0.000000e+00	1.800000e+00	1.799994e+00	
1223	1.202452e-08	0.000000e+00	1.800000e+00	1.800006e+00	
1224	1.203452e-08	0.000000e+00	1.800000e+00	1.799994e+00	
1225	1.204452e-08	0.000000e+00	1.800000e+00	1.800006e+00	
1226	1.205452e-08	0.000000e+00	1.800000e+00	1.799994e+00	
1227	1.206452e-08	0.000000e+00	1.800000e+00	1.800006e+00	
1228	1.207452e-08	0.000000e+00	1.800000e+00	1.799994e+00	
1229	1.208452e-08	0.000000e+00	1.800000e+00	1.800006e+00	
1230	1.209452e-08	0.000000e+00	1.800000e+00	1.799994e+00	
1231	1.210452e-08	0.000000e+00	1.800000e+00	1.800006e+00	
1232	1.211452e-08	0.000000e+00	1.800000e+00	1.799994e+00	
1233	1.212452e-08	0.000000e+00	1.800000e+00	1.800006e+00	
1234	1.213452e-08	0.000000e+00	1.800000e+00	1.799994e+00	
1235	1.214452e-08	0.000000e+00	1.800000e+00	1.800006e+00	
1236	1.215452e-08	0.000000e+00	1.800000e+00	1.799994e+00	
1237	1.216452e-08	0.000000e+00	1.800000e+00	1.800006e+00	
1238	1.217452e-08	0.000000e+00	1.800000e+00	1.799994e+00	
1239	1.218452e-08	0.000000e+00	1.800000e+00	1.800006e+00	
1240	1.219452e-08	0.000000e+00	1.800000e+00	1.799994e+00	
1241	1.220452e-08	0.000000e+00	1.800000e+00	1.800006e+00	
1242	1.221452e-08	0.000000e+00	1.800000e+00	1.799994e+00	
1243	1.222452e-08	0.000000e+00	1.800000e+00	1.800006e+00	
1244	1.223452e-08	0.000000e+00	1.800000e+00	1.799994e+00	
1245	1.224452e-08	0.000000e+00	1.800000e+00	1.800005e+00	
1246	1.225452e-08	0.000000e+00	1.800000e+00	1.799995e+00	
1247	1.226452e-08	0.000000e+00	1.800000e+00	1.800005e+00	
1248	1.227452e-08	0.000000e+00	1.800000e+00	1.799995e+00	
1249	1.228452e-08	0.000000e+00	1.800000e+00	1.800005e+00	
1250	1.229452e-08	0.000000e+00	1.800000e+00	1.799995e+00	
1251	1.230452e-08	0.000000e+00	1.800000e+00	1.800005e+00	
1252	1.231452e-08	0.000000e+00	1.800000e+00	1.799995e+00	
1253	1.232452e-08	0.000000e+00	1.800000e+00	1.800005e+00	
1254	1.233452e-08	0.000000e+00	1.800000e+00	1.799995e+00	
1255	1.234452e-08	0.000000e+00	1.800000e+00	1.800005e+00	
1256	1.235452e-08	0.000000e+00	1.800000e+00	1.799995e+00	
1257	1.236452e-08	0.000000e+00	1.800000e+00	1.800005e+00	
1258	1.237452e-08	0.000000e+00	1.800000e+00	1.799995e+00	
1259	1.238452e-08	0.000000e+00	1.800000e+00	1.800005e+00	
1260	1.239452e-08	0.000000e+00	1.800000e+00	1.799995e+00	
1261	1.240452e-08	0.000000e+00	1.800000e+00	1.800005e+00	
1262	1.241452e-08	0.000000e+00	1.800000e+00	1.799995e+00	
1263	1.242452e-08	0.000000e+00	1.800000e+00	1.800005e+00	
1264	1.243452e-08	0.000000e+00	1.800000e+00	1.799995e+00	
1265	1.244452e-08	0.000000e+00	1.800000e+00	1.800005e+00	
1266	1.245452e-08	0.000000e+00	1.800000e+00	1.799995e+00	
1267	1.246452e-08	0.000000e+00	1.800000e+00	1.800005e+00	
1268	1.247452e-08	0.000000e+00	1.800000e+00	1.799995e+00	
1269	1.248452e-08	0.000000e+00	1.800000e+00	1.800005e+00	
1270	1.249452e-08	0.000000e+00	1.800000e+00	1.799995e+00	
1271	1.250452e-08	0.000000e+00	1.800000e+00	1.800005e+00	
1272	1.251452e-08	0.000000e+00	1.800000e+00	1.799995e+00	

Index   time            v(wl)           v(bl)           v(blb)          
--------------------------------------------------------------------------------
1273	1.252452e-08	0.000000e+00	1.800000e+00	1.800005e+00	
1274	1.253452e-08	0.000000e+00	1.800000e+00	1.799995e+00	
1275	1.254452e-08	0.000000e+00	1.800000e+00	1.800005e+00	
1276	1.255452e-08	0.000000e+00	1.800000e+00	1.799995e+00	
1277	1.256452e-08	0.000000e+00	1.800000e+00	1.800005e+00	
1278	1.257452e-08	0.000000e+00	1.800000e+00	1.799995e+00	
1279	1.258452e-08	0.000000e+00	1.800000e+00	1.800005e+00	
1280	1.259452e-08	0.000000e+00	1.800000e+00	1.799995e+00	
1281	1.260452e-08	0.000000e+00	1.800000e+00	1.800005e+00	
1282	1.261452e-08	0.000000e+00	1.800000e+00	1.799995e+00	
1283	1.262452e-08	0.000000e+00	1.800000e+00	1.800005e+00	
1284	1.263452e-08	0.000000e+00	1.800000e+00	1.799996e+00	
1285	1.264452e-08	0.000000e+00	1.800000e+00	1.800004e+00	
1286	1.265452e-08	0.000000e+00	1.800000e+00	1.799996e+00	
1287	1.266452e-08	0.000000e+00	1.800000e+00	1.800004e+00	
1288	1.267452e-08	0.000000e+00	1.800000e+00	1.799996e+00	
1289	1.268452e-08	0.000000e+00	1.800000e+00	1.800004e+00	
1290	1.269452e-08	0.000000e+00	1.800000e+00	1.799996e+00	
1291	1.270452e-08	0.000000e+00	1.800000e+00	1.800004e+00	
1292	1.271452e-08	0.000000e+00	1.800000e+00	1.799996e+00	
1293	1.272452e-08	0.000000e+00	1.800000e+00	1.800004e+00	
1294	1.273452e-08	0.000000e+00	1.800000e+00	1.799996e+00	
1295	1.274452e-08	0.000000e+00	1.800000e+00	1.800004e+00	
1296	1.275452e-08	0.000000e+00	1.800000e+00	1.799996e+00	
1297	1.276452e-08	0.000000e+00	1.800000e+00	1.800004e+00	
1298	1.277452e-08	0.000000e+00	1.800000e+00	1.799996e+00	
1299	1.278452e-08	0.000000e+00	1.800000e+00	1.800004e+00	
1300	1.279452e-08	0.000000e+00	1.800000e+00	1.799996e+00	
1301	1.280452e-08	0.000000e+00	1.800000e+00	1.800004e+00	
1302	1.281452e-08	0.000000e+00	1.800000e+00	1.799996e+00	
1303	1.282452e-08	0.000000e+00	1.800000e+00	1.800004e+00	
1304	1.283452e-08	0.000000e+00	1.800000e+00	1.799996e+00	
1305	1.284452e-08	0.000000e+00	1.800000e+00	1.800004e+00	
1306	1.285452e-08	0.000000e+00	1.800000e+00	1.799996e+00	
1307	1.286452e-08	0.000000e+00	1.800000e+00	1.800004e+00	
1308	1.287452e-08	0.000000e+00	1.800000e+00	1.799996e+00	
1309	1.288452e-08	0.000000e+00	1.800000e+00	1.800004e+00	
1310	1.289452e-08	0.000000e+00	1.800000e+00	1.799996e+00	
1311	1.290452e-08	0.000000e+00	1.800000e+00	1.800004e+00	
1312	1.291452e-08	0.000000e+00	1.800000e+00	1.799996e+00	
1313	1.292452e-08	0.000000e+00	1.800000e+00	1.800004e+00	
1314	1.293452e-08	0.000000e+00	1.800000e+00	1.799996e+00	
1315	1.294452e-08	0.000000e+00	1.800000e+00	1.800004e+00	
1316	1.295452e-08	0.000000e+00	1.800000e+00	1.799996e+00	
1317	1.296452e-08	0.000000e+00	1.800000e+00	1.800004e+00	
1318	1.297452e-08	0.000000e+00	1.800000e+00	1.799996e+00	
1319	1.298452e-08	0.000000e+00	1.800000e+00	1.800004e+00	
1320	1.299452e-08	0.000000e+00	1.800000e+00	1.799996e+00	
[...]
2706	2.679351e-08	1.800000e+00	1.800000e+00	1.677310e+00	
2707	2.680351e-08	1.800000e+00	1.800000e+00	1.677328e+00	
2708	2.681351e-08	1.800000e+00	1.800000e+00	1.677345e+00	
2709	2.682351e-08	1.800000e+00	1.800000e+00	1.677362e+00	
2710	2.683351e-08	1.800000e+00	1.800000e+00	1.677380e+00	
2711	2.684351e-08	1.800000e+00	1.800000e+00	1.677397e+00	
2712	2.685351e-08	1.800000e+00	1.800000e+00	1.677415e+00	
2713	2.686351e-08	1.800000e+00	1.800000e+00	1.677432e+00	
2714	2.687351e-08	1.800000e+00	1.800000e+00	1.677450e+00	
2715	2.688351e-08	1.800000e+00	1.800000e+00	1.677467e+00	
2716	2.689351e-08	1.800000e+00	1.800000e+00	1.677485e+00	
2717	2.690351e-08	1.800000e+00	1.800000e+00	1.677502e+00	
2718	2.691351e-08	1.800000e+00	1.800000e+00	1.677520e+00	
2719	2.692351e-08	1.800000e+00	1.800000e+00	1.677537e+00	
2720	2.693351e-08	1.800000e+00	1.800000e+00	1.677555e+00	
2721	2.694351e-08	1.800000e+00	1.800000e+00	1.677572e+00	
2722	2.695351e-08	1.800000e+00	1.800000e+00	1.677590e+00	

Index   time            v(wl)           v(bl)           v(blb)          
--------------------------------------------------------------------------------
2723	2.696351e-08	1.800000e+00	1.800000e+00	1.677607e+00	
2724	2.697351e-08	1.800000e+00	1.800000e+00	1.677624e+00	
2725	2.698351e-08	1.800000e+00	1.800000e+00	1.677642e+00	
2726	2.699351e-08	1.800000e+00	1.800000e+00	1.677659e+00	
2727	2.700351e-08	1.800000e+00	1.800000e+00	1.677677e+00	
2728	2.701351e-08	1.800000e+00	1.800000e+00	1.677694e+00	
2729	2.702351e-08	1.800000e+00	1.800000e+00	1.677712e+00	
2730	2.703351e-08	1.800000e+00	1.800000e+00	1.677729e+00	
2731	2.704351e-08	1.800000e+00	1.800000e+00	1.677746e+00	
2732	2.705351e-08	1.800000e+00	1.800000e+00	1.677764e+00	
2733	2.706351e-08	1.800000e+00	1.800000e+00	1.677781e+00	
2734	2.707351e-08	1.800000e+00	1.800000e+00	1.677799e+00	
2735	2.708351e-08	1.800000e+00	1.800000e+00	1.677816e+00	
2736	2.709351e-08	1.800000e+00	1.800000e+00	1.677833e+00	
2737	2.710351e-08	1.800000e+00	1.800000e+00	1.677851e+00	
2738	2.711351e-08	1.800000e+00	1.800000e+00	1.677868e+00	
2739	2.712351e-08	1.800000e+00	1.800000e+00	1.677886e+00	
2740	2.713351e-08	1.800000e+00	1.800000e+00	1.677903e+00	
2741	2.714351e-08	1.800000e+00	1.800000e+00	1.677920e+00	
2742	2.715351e-08	1.800000e+00	1.800000e+00	1.677938e+00	
2743	2.716351e-08	1.800000e+00	1.800000e+00	1.677955e+00	
2744	2.717351e-08	1.800000e+00	1.800000e+00	1.677972e+00	
2745	2.718351e-08	1.800000e+00	1.800000e+00	1.677990e+00	
2746	2.719351e-08	1.800000e+00	1.800000e+00	1.678007e+00	
2747	2.720351e-08	1.800000e+00	1.800000e+00	1.678024e+00	
2748	2.721351e-08	1.800000e+00	1.800000e+00	1.678042e+00	
2749	2.722351e-08	1.800000e+00	1.800000e+00	1.678059e+00	
2750	2.723351e-08	1.800000e+00	1.800000e+00	1.678076e+00	
2751	2.724351e-08	1.800000e+00	1.800000e+00	1.678094e+00	
2752	2.725351e-08	1.800000e+00	1.800000e+00	1.678111e+00	
2753	2.726351e-08	1.800000e+00	1.800000e+00	1.678128e+00	
2754	2.727351e-08	1.800000e+00	1.800000e+00	1.678146e+00	
2755	2.728351e-08	1.800000e+00	1.800000e+00	1.678163e+00	
2756	2.729351e-08	1.800000e+00	1.800000e+00	1.678180e+00	
2757	2.730351e-08	1.800000e+00	1.800000e+00	1.678198e+00	
2758	2.731351e-08	1.800000e+00	1.800000e+00	1.678215e+00	
2759	2.732351e-08	1.800000e+00	1.800000e+00	1.678232e+00	
2760	2.733351e-08	1.800000e+00	1.800000e+00	1.678250e+00	
2761	2.734351e-08	1.800000e+00	1.800000e+00	1.678267e+00	
2762	2.735351e-08	1.800000e+00	1.800000e+00	1.678284e+00	
2763	2.736351e-08	1.800000e+00	1.800000e+00	1.678302e+00	
2764	2.737351e-08	1.800000e+00	1.800000e+00	1.678319e+00	
2765	2.738351e-08	1.800000e+00	1.800000e+00	1.678336e+00	
2766	2.739351e-08	1.800000e+00	1.800000e+00	1.678353e+00	
2767	2.740351e-08	1.800000e+00	1.800000e+00	1.678371e+00	
2768	2.741351e-08	1.800000e+00	1.800000e+00	1.678388e+00	
2769	2.742351e-08	1.800000e+00	1.800000e+00	1.678405e+00	
2770	2.743351e-08	1.800000e+00	1.800000e+00	1.678423e+00	
2771	2.744351e-08	1.800000e+00	1.800000e+00	1.678440e+00	
2772	2.745351e-08	1.800000e+00	1.800000e+00	1.678457e+00	
2773	2.746351e-08	1.800000e+00	1.800000e+00	1.678474e+00	
2774	2.747351e-08	1.800000e+00	1.800000e+00	1.678492e+00	
2775	2.748351e-08	1.800000e+00	1.800000e+00	1.678509e+00	
2776	2.749351e-08	1.800000e+00	1.800000e+00	1.678526e+00	
2777	2.750351e-08	1.800000e+00	1.800000e+00	1.678543e+00	
2778	2.751351e-08	1.800000e+00	1.800000e+00	1.678561e+00	
2779	2.752351e-08	1.800000e+00	1.800000e+00	1.678578e+00	
2780	2.753351e-08	1.800000e+00	1.800000e+00	1.678595e+00	

Index   time            v(wl)           v(bl)           v(blb)          
--------------------------------------------------------------------------------
2781	2.754351e-08	1.800000e+00	1.800000e+00	1.678612e+00	
2782	2.755351e-08	1.800000e+00	1.800000e+00	1.678629e+00	
2783	2.756351e-08	1.800000e+00	1.800000e+00	1.678647e+00	
2784	2.757351e-08	1.800000e+00	1.800000e+00	1.678664e+00	
2785	2.758351e-08	1.800000e+00	1.800000e+00	1.678681e+00	
2786	2.759351e-08	1.800000e+00	1.800000e+00	1.678698e+00	
2787	2.760351e-08	1.800000e+00	1.800000e+00	1.678716e+00	
2788	2.761351e-08	1.800000e+00	1.800000e+00	1.678733e+00	
2789	2.762351e-08	1.800000e+00	1.800000e+00	1.678750e+00	
2790	2.763351e-08	1.800000e+00	1.800000e+00	1.678767e+00	
2791	2.764351e-08	1.800000e+00	1.800000e+00	1.678784e+00	
2792	2.765351e-08	1.800000e+00	1.800000e+00	1.678802e+00	
2793	2.766351e-08	1.800000e+00	1.800000e+00	1.678819e+00	
2794	2.767351e-08	1.800000e+00	1.800000e+00	1.678836e+00	
2795	2.768351e-08	1.800000e+00	1.800000e+00	1.678853e+00	
2796	2.769351e-08	1.800000e+00	1.800000e+00	1.678870e+00	
2797	2.770351e-08	1.800000e+00	1.800000e+00	1.678887e+00	
2798	2.771351e-08	1.800000e+00	1.800000e+00	1.678905e+00	
2799	2.772351e-08	1.800000e+00	1.800000e+00	1.678922e+00	
2800	2.773351e-08	1.800000e+00	1.800000e+00	1.678939e+00	
2801	2.774351e-08	1.800000e+00	1.800000e+00	1.678956e+00	
2802	2.775351e-08	1.800000e+00	1.800000e+00	1.678973e+00	
2803	2.776351e-08	1.800000e+00	1.800000e+00	1.678990e+00	
2804	2.777351e-08	1.800000e+00	1.800000e+00	1.679008e+00	
2805	2.778351e-08	1.800000e+00	1.800000e+00	1.679025e+00	
2806	2.779351e-08	1.800000e+00	1.800000e+00	1.679042e+00	
2807	2.780351e-08	1.800000e+00	1.800000e+00	1.679059e+00	
2808	2.781351e-08	1.800000e+00	1.800000e+00	1.679076e+00	
2809	2.782351e-08	1.800000e+00	1.800000e+00	1.679093e+00	
2810	2.783351e-08	1.800000e+00	1.800000e+00	1.679110e+00	
2811	2.784351e-08	1.800000e+00	1.800000e+00	1.679127e+00	
2812	2.785351e-08	1.800000e+00	1.800000e+00	1.679145e+00	
2813	2.786351e-08	1.800000e+00	1.800000e+00	1.679162e+00	
2814	2.787351e-08	1.800000e+00	1.800000e+00	1.679179e+00	
2815	2.788351e-08	1.800000e+00	1.800000e+00	1.679196e+00	
2816	2.789351e-08	1.800000e+00	1.800000e+00	1.679213e+00	
2817	2.790351e-08	1.800000e+00	1.800000e+00	1.679230e+00	
2818	2.791351e-08	1.800000e+00	1.800000e+00	1.679247e+00	
2819	2.792351e-08	1.800000e+00	1.800000e+00	1.679264e+00	
2820	2.793351e-08	1.800000e+00	1.800000e+00	1.679281e+00	
2821	2.794351e-08	1.800000e+00	1.800000e+00	1.679299e+00	
2822	2.795351e-08	1.800000e+00	1.800000e+00	1.679316e+00	
2823	2.796351e-08	1.800000e+00	1.800000e+00	1.679333e+00	
2824	2.797351e-08	1.800000e+00	1.800000e+00	1.679350e+00	
2825	2.798351e-08	1.800000e+00	1.800000e+00	1.679367e+00	
2826	2.799351e-08	1.800000e+00	1.800000e+00	1.679384e+00	
2827	2.800351e-08	1.800000e+00	1.800000e+00	1.679401e+00	
2828	2.801351e-08	1.800000e+00	1.800000e+00	1.679418e+00	
2829	2.802351e-08	1.800000e+00	1.800000e+00	1.679435e+00	
2830	2.803351e-08	1.800000e+00	1.800000e+00	1.679452e+00	
2831	2.804351e-08	1.800000e+00	1.800000e+00	1.679469e+00	
2832	2.805351e-08	1.800000e+00	1.800000e+00	1.679486e+00	
2833	2.806351e-08	1.800000e+00	1.800000e+00	1.679503e+00	
2834	2.807351e-08	1.800000e+00	1.800000e+00	1.679520e+00	
2835	2.808351e-08	1.800000e+00	1.800000e+00	1.679537e+00	
2836	2.809351e-08	1.800000e+00	1.800000e+00	1.679554e+00	
2837	2.810351e-08	1.800000e+00	1.800000e+00	1.679571e+00	
2838	2.811351e-08	1.800000e+00	1.800000e+00	1.679588e+00	

Index   time            v(wl)           v(bl)           v(blb)          
--------------------------------------------------------------------------------
2839	2.812351e-08	1.800000e+00	1.800000e+00	1.679605e+00	
2840	2.813351e-08	1.800000e+00	1.800000e+00	1.679622e+00	
2841	2.814351e-08	1.800000e+00	1.800000e+00	1.679640e+00	
2842	2.815351e-08	1.800000e+00	1.800000e+00	1.679657e+00	
2843	2.816351e-08	1.800000e+00	1.800000e+00	1.679674e+00	
2844	2.817351e-08	1.800000e+00	1.800000e+00	1.679691e+00	
2845	2.818351e-08	1.800000e+00	1.800000e+00	1.679708e+00	
2846	2.819351e-08	1.800000e+00	1.800000e+00	1.679725e+00	
2847	2.820351e-08	1.800000e+00	1.800000e+00	1.679742e+00	
2848	2.821351e-08	1.800000e+00	1.800000e+00	1.679759e+00	
2849	2.822351e-08	1.800000e+00	1.800000e+00	1.679776e+00	
2850	2.823351e-08	1.800000e+00	1.800000e+00	1.679792e+00	
2851	2.824351e-08	1.800000e+00	1.800000e+00	1.679809e+00	
2852	2.825351e-08	1.800000e+00	1.800000e+00	1.679826e+00	
2853	2.826351e-08	1.800000e+00	1.800000e+00	1.679843e+00	
2854	2.827351e-08	1.800000e+00	1.800000e+00	1.679860e+00	
2855	2.828351e-08	1.800000e+00	1.800000e+00	1.679877e+00	
2856	2.829351e-08	1.800000e+00	1.800000e+00	1.679894e+00	
2857	2.830351e-08	1.800000e+00	1.800000e+00	1.679911e+00	
2858	2.831351e-08	1.800000e+00	1.800000e+00	1.679928e+00	
2859	2.832351e-08	1.800000e+00	1.800000e+00	1.679945e+00	
2860	2.833351e-08	1.800000e+00	1.800000e+00	1.679962e+00	
2861	2.834351e-08	1.800000e+00	1.800000e+00	1.679979e+00	
2862	2.835351e-08	1.800000e+00	1.800000e+00	1.679996e+00	
2863	2.836351e-08	1.800000e+00	1.800000e+00	1.680013e+00	
2864	2.837351e-08	1.800000e+00	1.800000e+00	1.680030e+00	
2865	2.838351e-08	1.800000e+00	1.800000e+00	1.680047e+00	
2866	2.839351e-08	1.800000e+00	1.800000e+00	1.680064e+00	
2867	2.840351e-08	1.800000e+00	1.800000e+00	1.680081e+00	
2868	2.841351e-08	1.800000e+00	1.800000e+00	1.680098e+00	
2869	2.842351e-08	1.800000e+00	1.800000e+00	1.680115e+00	
2870	2.843351e-08	1.800000e+00	1.800000e+00	1.680131e+00	
2871	2.844351e-08	1.800000e+00	1.800000e+00	1.680148e+00	
2872	2.845351e-08	1.800000e+00	1.800000e+00	1.680165e+00	
2873	2.846351e-08	1.800000e+00	1.800000e+00	1.680182e+00	
2874	2.847351e-08	1.800000e+00	1.800000e+00	1.680199e+00	
2875	2.848351e-08	1.800000e+00	1.800000e+00	1.680216e+00	
2876	2.849351e-08	1.800000e+00	1.800000e+00	1.680233e+00	
2877	2.850351e-08	1.800000e+00	1.800000e+00	1.680250e+00	
2878	2.851351e-08	1.800000e+00	1.800000e+00	1.680267e+00	
2879	2.852351e-08	1.800000e+00	1.800000e+00	1.680284e+00	
2880	2.853351e-08	1.800000e+00	1.800000e+00	1.680300e+00	
2881	2.854351e-08	1.800000e+00	1.800000e+00	1.680317e+00	
2882	2.855351e-08	1.800000e+00	1.800000e+00	1.680334e+00	
2883	2.856351e-08	1.800000e+00	1.800000e+00	1.680351e+00	
2884	2.857351e-08	1.800000e+00	1.800000e+00	1.680368e+00	
2885	2.858351e-08	1.800000e+00	1.800000e+00	1.680385e+00	
2886	2.859351e-08	1.800000e+00	1.800000e+00	1.680402e+00	
2887	2.860351e-08	1.800000e+00	1.800000e+00	1.680418e+00	
2888	2.861351e-08	1.800000e+00	1.800000e+00	1.680435e+00	
2889	2.862351e-08	1.800000e+00	1.800000e+00	1.680452e+00	
2890	2.863351e-08	1.800000e+00	1.800000e+00	1.680469e+00	
2891	2.864351e-08	1.800000e+00	1.800000e+00	1.680486e+00	
2892	2.865351e-08	1.800000e+00	1.800000e+00	1.680503e+00	
2893	2.866351e-08	1.800000e+00	1.800000e+00	1.680520e+00	
2894	2.867351e-08	1.800000e+00	1.800000e+00	1.680536e+00	
2895	2.868351e-08	1.800000e+00	1.800000e+00	1.680553e+00	
2896	2.869351e-08	1.800000e+00	1.800000e+00	1.680570e+00	

Index   time            v(wl)           v(bl)           v(blb)          
--------------------------------------------------------------------------------
2897	2.870351e-08	1.800000e+00	1.800000e+00	1.680587e+00	
2898	2.871351e-08	1.800000e+00	1.800000e+00	1.680604e+00	
2899	2.872351e-08	1.800000e+00	1.800000e+00	1.680620e+00	
2900	2.873351e-08	1.800000e+00	1.800000e+00	1.680637e+00	
2901	2.874351e-08	1.800000e+00	1.800000e+00	1.680654e+00	
2902	2.875351e-08	1.800000e+00	1.800000e+00	1.680671e+00	
2903	2.876351e-08	1.800000e+00	1.800000e+00	1.680688e+00	
2904	2.877351e-08	1.800000e+00	1.800000e+00	1.680704e+00	
2905	2.878351e-08	1.800000e+00	1.800000e+00	1.680721e+00	
2906	2.879351e-08	1.800000e+00	1.800000e+00	1.680738e+00	
2907	2.880351e-08	1.800000e+00	1.800000e+00	1.680755e+00	
2908	2.881351e-08	1.800000e+00	1.800000e+00	1.680772e+00	
2909	2.882351e-08	1.800000e+00	1.800000e+00	1.680788e+00	
2910	2.883351e-08	1.800000e+00	1.800000e+00	1.680805e+00	
2911	2.884351e-08	1.800000e+00	1.800000e+00	1.680822e+00	
2912	2.885351e-08	1.800000e+00	1.800000e+00	1.680839e+00	
2913	2.886351e-08	1.800000e+00	1.800000e+00	1.680855e+00	
2914	2.887351e-08	1.800000e+00	1.800000e+00	1.680872e+00	
2915	2.888351e-08	1.800000e+00	1.800000e+00	1.680889e+00	
2916	2.889351e-08	1.800000e+00	1.800000e+00	1.680906e+00	
2917	2.890351e-08	1.800000e+00	1.800000e+00	1.680922e+00	
2918	2.891351e-08	1.800000e+00	1.800000e+00	1.680939e+00	
2919	2.892351e-08	1.800000e+00	1.800000e+00	1.680956e+00	
2920	2.893351e-08	1.800000e+00	1.800000e+00	1.680973e+00	
2921	2.894351e-08	1.800000e+00	1.800000e+00	1.680989e+00	
2922	2.895351e-08	1.800000e+00	1.800000e+00	1.681006e+00	
2923	2.896351e-08	1.800000e+00	1.800000e+00	1.681023e+00	
2924	2.897351e-08	1.800000e+00	1.800000e+00	1.681040e+00	
2925	2.898351e-08	1.800000e+00	1.800000e+00	1.681056e+00	
2926	2.899351e-08	1.800000e+00	1.800000e+00	1.681073e+00	
2927	2.900351e-08	1.800000e+00	1.800000e+00	1.681090e+00	
2928	2.901351e-08	1.800000e+00	1.800000e+00	1.681107e+00	
2929	2.902351e-08	1.800000e+00	1.800000e+00	1.681123e+00	
2930	2.903351e-08	1.800000e+00	1.800000e+00	1.681140e+00	
2931	2.904351e-08	1.800000e+00	1.800000e+00	1.681157e+00	
2932	2.905351e-08	1.800000e+00	1.800000e+00	1.681173e+00	
2933	2.906351e-08	1.800000e+00	1.800000e+00	1.681190e+00	
2934	2.907351e-08	1.800000e+00	1.800000e+00	1.681207e+00	
2935	2.908351e-08	1.800000e+00	1.800000e+00	1.681223e+00	
2936	2.909351e-08	1.800000e+00	1.800000e+00	1.681240e+00	
2937	2.910351e-08	1.800000e+00	1.800000e+00	1.681257e+00	
2938	2.911351e-08	1.800000e+00	1.800000e+00	1.681273e+00	
2939	2.912351e-08	1.800000e+00	1.800000e+00	1.681290e+00	
2940	2.913351e-08	1.800000e+00	1.800000e+00	1.681307e+00	
2941	2.914351e-08	1.800000e+00	1.800000e+00	1.681323e+00	
2942	2.915351e-08	1.800000e+00	1.800000e+00	1.681340e+00	
2943	2.916351e-08	1.800000e+00	1.800000e+00	1.681357e+00	
2944	2.917351e-08	1.800000e+00	1.800000e+00	1.681373e+00	
2945	2.918351e-08	1.800000e+00	1.800000e+00	1.681390e+00	
2946	2.919351e-08	1.800000e+00	1.800000e+00	1.681407e+00	
2947	2.920351e-08	1.800000e+00	1.800000e+00	1.681423e+00	
2948	2.921351e-08	1.800000e+00	1.800000e+00	1.681440e+00	
2949	2.922351e-08	1.800000e+00	1.800000e+00	1.681457e+00	
2950	2.923351e-08	1.800000e+00	1.800000e+00	1.681473e+00	
2951	2.924351e-08	1.800000e+00	1.800000e+00	1.681490e+00	
2952	2.925351e-08	1.800000e+00	1.800000e+00	1.681507e+00	
2953	2.926351e-08	1.800000e+00	1.800000e+00	1.681523e+00	
2954	2.927351e-08	1.800000e+00	1.800000e+00	1.681540e+00	

Index   time            v(wl)           v(bl)           v(blb)          
--------------------------------------------------------------------------------
2955	2.928351e-08	1.800000e+00	1.800000e+00	1.681556e+00	
2956	2.929351e-08	1.800000e+00	1.800000e+00	1.681573e+00	
2957	2.930351e-08	1.800000e+00	1.800000e+00	1.681590e+00	
2958	2.931351e-08	1.800000e+00	1.800000e+00	1.681606e+00	
2959	2.932351e-08	1.800000e+00	1.800000e+00	1.681623e+00	
2960	2.933351e-08	1.800000e+00	1.800000e+00	1.681640e+00	
2961	2.934351e-08	1.800000e+00	1.800000e+00	1.681656e+00	
2962	2.935351e-08	1.800000e+00	1.800000e+00	1.681673e+00	
2963	2.936351e-08	1.800000e+00	1.800000e+00	1.681689e+00	
2964	2.937351e-08	1.800000e+00	1.800000e+00	1.681706e+00	
2965	2.938351e-08	1.800000e+00	1.800000e+00	1.681722e+00	
2966	2.939351e-08	1.800000e+00	1.800000e+00	1.681739e+00	
2967	2.940351e-08	1.800000e+00	1.800000e+00	1.681756e+00	
2968	2.941351e-08	1.800000e+00	1.800000e+00	1.681772e+00	
2969	2.942351e-08	1.800000e+00	1.800000e+00	1.681789e+00	
2970	2.943351e-08	1.800000e+00	1.800000e+00	1.681805e+00	
2971	2.944351e-08	1.800000e+00	1.800000e+00	1.681822e+00	
2972	2.945351e-08	1.800000e+00	1.800000e+00	1.681839e+00	
2973	2.946351e-08	1.800000e+00	1.800000e+00	1.681855e+00	
2974	2.947351e-08	1.800000e+00	1.800000e+00	1.681872e+00	
2975	2.948351e-08	1.800000e+00	1.800000e+00	1.681888e+00	
2976	2.949351e-08	1.800000e+00	1.800000e+00	1.681905e+00	
2977	2.950351e-08	1.800000e+00	1.800000e+00	1.681921e+00	
2978	2.951351e-08	1.800000e+00	1.800000e+00	1.681938e+00	
2979	2.952351e-08	1.800000e+00	1.800000e+00	1.681954e+00	
2980	2.953351e-08	1.800000e+00	1.800000e+00	1.681971e+00	
2981	2.954351e-08	1.800000e+00	1.800000e+00	1.681987e+00	
2982	2.955351e-08	1.800000e+00	1.800000e+00	1.682004e+00	
2983	2.956351e-08	1.800000e+00	1.800000e+00	1.682020e+00	
2984	2.957351e-08	1.800000e+00	1.800000e+00	1.682037e+00	
2985	2.958351e-08	1.800000e+00	1.800000e+00	1.682054e+00	
2986	2.959351e-08	1.800000e+00	1.800000e+00	1.682070e+00	
2987	2.960351e-08	1.800000e+00	1.800000e+00	1.682087e+00	
2988	2.961351e-08	1.800000e+00	1.800000e+00	1.682103e+00	
2989	2.962351e-08	1.800000e+00	1.800000e+00	1.682120e+00	
2990	2.963351e-08	1.800000e+00	1.800000e+00	1.682136e+00	
2991	2.964351e-08	1.800000e+00	1.800000e+00	1.682153e+00	
2992	2.965351e-08	1.800000e+00	1.800000e+00	1.682169e+00	
2993	2.966351e-08	1.800000e+00	1.800000e+00	1.682186e+00	
2994	2.967351e-08	1.800000e+00	1.800000e+00	1.682202e+00	
2995	2.968351e-08	1.800000e+00	1.800000e+00	1.682218e+00	
2996	2.969351e-08	1.800000e+00	1.800000e+00	1.682235e+00	
2997	2.970351e-08	1.800000e+00	1.800000e+00	1.682251e+00	
2998	2.971351e-08	1.800000e+00	1.800000e+00	1.682268e+00	
2999	2.972351e-08	1.800000e+00	1.800000e+00	1.682284e+00	
3000	2.973351e-08	1.800000e+00	1.800000e+00	1.682301e+00	
3001	2.974351e-08	1.800000e+00	1.800000e+00	1.682317e+00	
3002	2.975351e-08	1.800000e+00	1.800000e+00	1.682334e+00	
3003	2.976351e-08	1.800000e+00	1.800000e+00	1.682350e+00	
3004	2.977351e-08	1.800000e+00	1.800000e+00	1.682367e+00	
3005	2.978351e-08	1.800000e+00	1.800000e+00	1.682383e+00	
3006	2.979351e-08	1.800000e+00	1.800000e+00	1.682400e+00	
3007	2.980351e-08	1.800000e+00	1.800000e+00	1.682416e+00	
3008	2.981351e-08	1.800000e+00	1.800000e+00	1.682432e+00	
3009	2.982351e-08	1.800000e+00	1.800000e+00	1.682449e+00	
3010	2.983351e-08	1.800000e+00	1.800000e+00	1.682465e+00	
3011	2.984351e-08	1.800000e+00	1.800000e+00	1.682482e+00	
3012	2.985351e-08	1.800000e+00	1.800000e+00	1.682498e+00	

Index   time            v(wl)           v(bl)           v(blb)          
--------------------------------------------------------------------------------
3013	2.986351e-08	1.800000e+00	1.800000e+00	1.682515e+00	
3014	2.987351e-08	1.800000e+00	1.800000e+00	1.682531e+00	
3015	2.988351e-08	1.800000e+00	1.800000e+00	1.682547e+00	
3016	2.989351e-08	1.800000e+00	1.800000e+00	1.682564e+00	
3017	2.990351e-08	1.800000e+00	1.800000e+00	1.682580e+00	
3018	2.991351e-08	1.800000e+00	1.800000e+00	1.682597e+00	
3019	2.992351e-08	1.800000e+00	1.800000e+00	1.682613e+00	
3020	2.993351e-08	1.800000e+00	1.800000e+00	1.682629e+00	
3021	2.994351e-08	1.800000e+00	1.800000e+00	1.682646e+00	
3022	2.995351e-08	1.800000e+00	1.800000e+00	1.682662e+00	
3023	2.996351e-08	1.800000e+00	1.800000e+00	1.682679e+00	
3024	2.997351e-08	1.800000e+00	1.800000e+00	1.682695e+00	
3025	2.998351e-08	1.800000e+00	1.800000e+00	1.682711e+00	
3026	2.999351e-08	1.800000e+00	1.800000e+00	1.682728e+00	
3027	3.000000e-08	1.800000e+00	1.800000e+00	1.682738e+00	


Total analysis time (seconds) = 0.073

Total elapsed time (seconds) = 12.125 

Total DRAM available = 7793.652 MB.
DRAM currently available = 6908.934 MB.
Maximum ngspice program size =  239.277 MB.
Current ngspice program size =  175.484 MB.

Shared ngspice pages =   11.551 MB.
Text (code) pages =    6.156 MB.
Stack = 0 bytes.
Library pages =  220.008 MB.

