
Note: Compatibility modes selected: hs a


Circuit: * pre-charge circuit - sky130 prelayout

Warning -- Version not specified on line "level=8 tox=4.15e-9 toxe=4.15e-9 toxp=2.1e-9 toxref=4.15e-9 phi=0.7 vth0=-0.50 k1=0.78 k2=0.0 k3=0.0 dvt0=1.0 dvt1=2.0 dvt2=-0.032 u0=30 ua=2.25e-9 ub=5.87e-19 uc=0.0 voff=-0.126 nfactor=2.1 cit=0.0 cdsc=0.0 cgso=2.4e-10 cgdo=2.4e-10 cj=1.7e-3 mj=0.5 cjsw=3.5e-10 mjsw=0.35 pclm=0.04 delta=0.01"
Setting version to 'default'.
Warning: Model issue on line 16 :
  .model pfet_sky130 pmos level=8 tox=4.15e-9 toxe=4.15e-9 toxp=2.1e-9 tox ...
unrecognized parameter (toxe) - ignored
unrecognized parameter (toxp) - ignored
unrecognized parameter (toxref) - ignored
unrecognized parameter (phi) - ignored

binary raw file "precharge_circuit.raw"
Doing analysis at TEMP = 27.000000 and TNOM = 27.000000

Using KLU as Direct Linear Solver
No. of Data Columns : 7  

No. of Data Rows : 4032
.print line ignored since rawfile was produced.

Total analysis time (seconds) = 0.055

Total elapsed time (seconds) = 0.059 

Total DRAM available = 7793.656 MB.
DRAM currently available = 7132.320 MB.
Maximum ngspice program size =   77.371 MB.
Current ngspice program size =   13.117 MB.

Shared ngspice pages =   11.074 MB.
Text (code) pages =    6.156 MB.
Stack = 0 bytes.
Library pages =   58.102 MB.

