
Note: Compatibility modes selected: hs a


Circuit: * tri-state buffer

Warning -- Version not specified on line "level=8 tox=4.15e-9 toxe=4.15e-9 toxp=2.1e-9 toxref=4.15e-9 phi=0.7 vth0=0.49 k1=0.78 k2=0.0 k3=0.0 dvt0=1.0 dvt1=2.0 dvt2=-0.032 u0=160 ua=2.25e-9 ub=5.87e-19 uc=0.0 voff=-0.126 nfactor=2.1 cit=0.0 cdsc=0.0 cgso=2.4e-10 cgdo=2.4e-10 cj=1.7e-3 mj=0.5 cjsw=3.5e-10 mjsw=0.35 pclm=0.04 delta=0.01"
Setting version to 'default'.
Warning -- Version not specified on line "level=8 tox=4.15e-9 toxe=4.15e-9 toxp=2.1e-9 toxref=4.15e-9 phi=0.7 vth0=-0.50 k1=0.78 k2=0.0 k3=0.0 dvt0=1.0 dvt1=2.0 dvt2=-0.032 u0=30 ua=2.25e-9 ub=5.87e-19 uc=0.0 voff=-0.126 nfactor=2.1 cit=0.0 cdsc=0.0 cgso=2.4e-10 cgdo=2.4e-10 cj=1.7e-3 mj=0.5 cjsw=3.5e-10 mjsw=0.35 pclm=0.04 delta=0.01"
Setting version to 'default'.
Warning: Model issue on line 4 :
  .model nfet_sky130 nmos level=8 tox=4.15e-9 toxe=4.15e-9 toxp=2.1e-9 tox ...
unrecognized parameter (toxe) - ignored
unrecognized parameter (toxp) - ignored
unrecognized parameter (toxref) - ignored
unrecognized parameter (phi) - ignored

Warning: Model issue on line 14 :
  .model pfet_sky130 pmos level=8 tox=4.15e-9 toxe=4.15e-9 toxp=2.1e-9 tox ...
unrecognized parameter (toxe) - ignored
unrecognized parameter (toxp) - ignored
unrecognized parameter (toxref) - ignored
unrecognized parameter (phi) - ignored

binary raw file "tri_state_buffer.raw"
Doing analysis at TEMP = 27.000000 and TNOM = 27.000000

Using KLU as Direct Linear Solver
No. of Data Columns : 11  

No. of Data Rows : 4044
.print line ignored since rawfile was produced.

Total analysis time (seconds) = 0.04

Total elapsed time (seconds) = 0.042 

Total DRAM available = 7793.656 MB.
DRAM currently available = 7127.570 MB.
Maximum ngspice program size =   77.367 MB.
Current ngspice program size =   13.336 MB.

Shared ngspice pages =   11.277 MB.
Text (code) pages =    6.156 MB.
Stack = 0 bytes.
Library pages =   58.098 MB.

